<trips>
  <trip id="veh005_0" depart="32516" from="958852841" to="39838789#2" type="passenger"/>
  <trip id="veh005_1" depart="31966" from="1235145933" to="769245718" type="passenger"/>
  <trip id="veh005_2" depart="32228" from="-50383097#9" to="39658122#0" type="passenger"/>
  <trip id="veh005_3" depart="28805" from="-40035904#1" to="238492234#0" type="passenger"/>
  <trip id="veh005_4" depart="32744" from="-226855595#1" to="-238492234#0" type="passenger"/>
  <trip id="veh005_5" depart="35482" from="40040179#12" to="39674883#1" type="passenger"/>
  <trip id="veh005_6" depart="30684" from="74450559" to="1235145933" type="passenger"/>
  <trip id="veh005_7" depart="32422" from="240666074#0" to="47386145" type="passenger"/>
  <trip id="veh005_8" depart="31865" from="238492234#0" to="-50843173#3" type="passenger"/>
  <trip id="veh005_9" depart="31600" from="1262057048#0" to="958852841" type="passenger"/>
  <trip id="veh005_10" depart="30754" from="446640439" to="49171011#1" type="passenger"/>
  <trip id="veh005_11" depart="29089" from="237271809#4" to="40040179#12" type="passenger"/>
  <trip id="veh005_12" depart="32964" from="163764181#0" to="1235145933" type="passenger"/>
  <trip id="veh005_13" depart="34115" from="446640439" to="240666074#0" type="passenger"/>
  <trip id="veh005_14" depart="34527" from="136014464#0" to="900390006#1" type="passenger"/>
  <trip id="veh005_15" depart="34896" from="40784659#1" to="30620777" type="passenger"/>
  <trip id="veh005_16" depart="31692" from="163764181#0" to="1067953247#1" type="passenger"/>
  <trip id="veh005_17" depart="35131" from="169004589#0" to="424580470#5" type="passenger"/>
  <trip id="veh005_18" depart="31724" from="457547879#4" to="238492234#0" type="passenger"/>
  <trip id="veh005_19" depart="31357" from="446640439" to="39658122#0" type="passenger"/>
  <trip id="veh005_20" depart="34781" from="1235145933" to="-50383097#9" type="passenger"/>
  <trip id="veh005_21" depart="29733" from="232359137" to="30620777" type="passenger"/>
  <trip id="veh005_22" depart="32776" from="39697113#3" to="-50371367#1" type="passenger"/>
  <trip id="veh005_23" depart="33371" from="240666074#0" to="-50323232#2" type="passenger"/>
  <trip id="veh005_24" depart="30195" from="504456844" to="39674883#1" type="passenger"/>
  <trip id="veh005_25" depart="29478" from="446640439" to="457547879#4" type="passenger"/>
  <trip id="veh005_26" depart="33899" from="50843170" to="47386145" type="passenger"/>
  <trip id="veh005_27" depart="32368" from="446640439" to="9178721#3" type="passenger"/>
  <trip id="veh005_28" depart="33779" from="71293415#1" to="49171011#1" type="passenger"/>
  <trip id="veh005_29" depart="33034" from="-226855595#1" to="-51296363" type="passenger"/>
  <trip id="veh005_30" depart="31380" from="238492234#0" to="39697113#3" type="passenger"/>
  <trip id="veh005_31" depart="30531" from="-1068139751" to="1235145933" type="passenger"/>
  <trip id="veh005_32" depart="35900" from="958852841" to="-176637359#2" type="passenger"/>
  <trip id="veh005_33" depart="30427" from="169004589#0" to="-504456842" type="passenger"/>
  <trip id="veh005_34" depart="31618" from="-52205556" to="237271809#4" type="passenger"/>
  <trip id="veh005_35" depart="32436" from="446640439" to="163764181#0" type="passenger"/>
  <trip id="veh005_36" depart="29350" from="41862226#1" to="163764181#0" type="passenger"/>
  <trip id="veh005_37" depart="29950" from="71293415#1" to="-226855595#1" type="passenger"/>
  <trip id="veh005_38" depart="32822" from="1092108127" to="47386145" type="passenger"/>
  <trip id="veh005_39" depart="32852" from="-50371367#1" to="1262057043#2" type="passenger"/>
  <trip id="veh005_40" depart="28881" from="446640439" to="1235145933" type="passenger"/>
  <trip id="veh005_41" depart="30033" from="169004589#0" to="-504456842" type="passenger"/>
  <trip id="veh005_42" depart="35903" from="238492234#0" to="958852841" type="passenger"/>
  <trip id="veh005_43" depart="34634" from="39658122#0" to="39697113#3" type="passenger"/>
  <trip id="veh005_44" depart="29525" from="-1225879469" to="163764181#0" type="passenger"/>
  <trip id="veh005_45" depart="31320" from="-220770272" to="39689392#0" type="passenger"/>
  <trip id="veh005_46" depart="33181" from="240666074#0" to="74450559" type="passenger"/>
  <trip id="veh005_47" depart="31037" from="504456844" to="1235145933" type="passenger"/>
  <trip id="veh005_48" depart="29461" from="39697113#3" to="-176637359#2" type="passenger"/>
  <trip id="veh005_49" depart="29227" from="1235145933" to="958852841" type="passenger"/>
  <trip id="veh005_50" depart="31697" from="238492234#0" to="1067953247#1" type="passenger"/>
  <trip id="veh005_51" depart="35023" from="238492234#0" to="1235145933" type="passenger"/>
  <trip id="veh005_52" depart="32960" from="47386145" to="-52205556" type="passenger"/>
  <trip id="veh005_53" depart="35245" from="163764181#0" to="12088962#10" type="passenger"/>
  <trip id="veh005_54" depart="35432" from="-451728952#4" to="39674883#1" type="passenger"/>
  <trip id="veh005_55" depart="29342" from="1235145933" to="49171011#1" type="passenger"/>
  <trip id="veh005_56" depart="34573" from="9178721#3" to="85796876#1" type="passenger"/>
  <trip id="veh005_57" depart="30808" from="47386145" to="163764181#0" type="passenger"/>
  <trip id="veh005_58" depart="33614" from="958852841" to="12088962#10" type="passenger"/>
  <trip id="veh005_59" depart="32572" from="163764181#0" to="12088962#10" type="passenger"/>
  <trip id="veh005_60" depart="34419" from="-1080217656#1" to="39697113#3" type="passenger"/>
  <trip id="veh005_61" depart="33389" from="169004589#0" to="238492234#0" type="passenger"/>
  <trip id="veh005_62" depart="29134" from="1016015052" to="169004589#0" type="passenger"/>
  <trip id="veh005_63" depart="31943" from="1262057043#2" to="446640439" type="passenger"/>
  <trip id="veh005_64" depart="33066" from="-1225879469" to="237271809#4" type="passenger"/>
  <trip id="veh005_65" depart="33200" from="1262057048#0" to="-126724514#0" type="passenger"/>
  <trip id="veh005_66" depart="31353" from="-39750994#4" to="958852841" type="passenger"/>
  <trip id="veh005_67" depart="30478" from="1067953247#1" to="169004589#0" type="passenger"/>
  <trip id="veh005_68" depart="29641" from="-39750994#4" to="163764181#0" type="passenger"/>
  <trip id="veh005_69" depart="31525" from="47386145" to="-220770272" type="passenger"/>
  <trip id="veh005_70" depart="29691" from="446640439" to="958852841" type="passenger"/>
  <trip id="veh005_71" depart="33898" from="47281535" to="163764181#0" type="passenger"/>
  <trip id="veh005_72" depart="31665" from="-39750994#4" to="958852841" type="passenger"/>
  <trip id="veh005_73" depart="32010" from="47386124" to="-1387302975" type="passenger"/>
  <trip id="veh005_74" depart="30525" from="39697113#3" to="1064816194" type="passenger"/>
  <trip id="veh005_75" depart="34217" from="85796876#1" to="1068144844" type="passenger"/>
  <trip id="veh005_76" depart="32447" from="143996571#1" to="238492234#0" type="passenger"/>
  <trip id="veh005_77" depart="35884" from="238492234#0" to="1005394020#2" type="passenger"/>
  <trip id="veh005_78" depart="32729" from="169004589#0" to="504456844" type="passenger"/>
  <trip id="veh005_79" depart="32547" from="41862226#1" to="47225638#0" type="passenger"/>
  <trip id="veh005_80" depart="35844" from="232359137" to="39697113#3" type="passenger"/>
  <trip id="veh005_81" depart="29814" from="769245718" to="163764181#0" type="passenger"/>
  <trip id="veh005_82" depart="32875" from="238492234#0" to="47225638#0" type="passenger"/>
  <trip id="veh005_83" depart="33471" from="39838789#2" to="240666074#0" type="passenger"/>
  <trip id="veh005_84" depart="28988" from="47386145" to="-220770272" type="passenger"/>
  <trip id="veh005_85" depart="31907" from="238492234#0" to="1064476622#0" type="passenger"/>
  <trip id="veh005_86" depart="33627" from="40784659#1" to="238492234#0" type="passenger"/>
  <trip id="veh005_87" depart="33854" from="169004589#0" to="238492234#0" type="passenger"/>
  <trip id="veh005_88" depart="31888" from="1235145933" to="169004589#0" type="passenger"/>
  <trip id="veh005_89" depart="30286" from="47281535" to="1092108127" type="passenger"/>
  <trip id="veh005_90" depart="29293" from="39697113#3" to="1118804256#1" type="passenger"/>
  <trip id="veh005_91" depart="33698" from="-1124366653" to="-504456842" type="passenger"/>
  <trip id="veh005_92" depart="34888" from="9704194#7" to="39697113#3" type="passenger"/>
  <trip id="veh005_93" depart="31948" from="50843170" to="-50383097#9" type="passenger"/>
  <trip id="veh005_94" depart="31857" from="47386145" to="-451728952#4" type="passenger"/>
  <trip id="veh005_95" depart="29636" from="-39750994#4" to="47386145" type="passenger"/>
  <trip id="veh005_96" depart="33309" from="1092372218" to="47225638#0" type="passenger"/>
  <trip id="veh005_97" depart="34248" from="163764181#0" to="39697113#3" type="passenger"/>
  <trip id="veh005_98" depart="35588" from="47386145" to="1005394020#2" type="passenger"/>
  <trip id="veh005_99" depart="31482" from="163764181#0" to="232359137" type="passenger"/>
  <trip id="veh005_100" depart="31391" from="1005394019#0" to="238492234#0" type="passenger"/>
  <trip id="veh005_101" depart="34638" from="-50383097#9" to="50843170" type="passenger"/>
  <trip id="veh005_102" depart="34119" from="136752699" to="958852841" type="passenger"/>
  <trip id="veh005_103" depart="29559" from="163764181#0" to="1118804256#1" type="passenger"/>
  <trip id="veh005_104" depart="33917" from="958852841" to="-39658122#4" type="passenger"/>
  <trip id="veh005_105" depart="33025" from="-176637359#2" to="-126724514#0" type="passenger"/>
  <trip id="veh005_106" depart="34643" from="-51296363" to="47386145" type="passenger"/>
  <trip id="veh005_107" depart="32896" from="40784659#1" to="136752699" type="passenger"/>
  <trip id="veh005_108" depart="29311" from="-50323232#2" to="238492234#0" type="passenger"/>
  <trip id="veh005_109" depart="34498" from="424580470#5" to="1092108127" type="passenger"/>
  <trip id="veh005_110" depart="28857" from="240666074#0" to="-50323232#2" type="passenger"/>
  <trip id="veh005_111" depart="30727" from="593755854" to="9704194#7" type="passenger"/>
  <trip id="veh005_112" depart="35363" from="39697113#3" to="446640439" type="passenger"/>
  <trip id="veh005_113" depart="30086" from="237271809#4" to="958852841" type="passenger"/>
  <trip id="veh005_114" depart="35889" from="593755854" to="240666074#0" type="passenger"/>
  <trip id="veh005_115" depart="30177" from="1092108127" to="-52205556" type="passenger"/>
  <trip id="veh005_116" depart="29831" from="1262057048#0" to="50843170" type="passenger"/>
  <trip id="veh005_117" depart="29797" from="593755854" to="136014464#0" type="passenger"/>
  <trip id="veh005_118" depart="34047" from="-238492234#0" to="85796876#1" type="passenger"/>
  <trip id="veh005_119" depart="35096" from="30620777" to="238492234#0" type="passenger"/>
  <trip id="veh005_120" depart="29093" from="163764181#0" to="-220770272" type="passenger"/>
  <trip id="veh005_121" depart="31505" from="-50371367#1" to="1235145933" type="passenger"/>
  <trip id="veh005_122" depart="31415" from="238492234#0" to="163764181#0" type="passenger"/>
  <trip id="veh005_123" depart="32314" from="1262057043#2" to="10738871#0" type="passenger"/>
  <trip id="veh005_124" depart="35106" from="47386145" to="1235145933" type="passenger"/>
  <trip id="veh005_125" depart="33070" from="169004589#0" to="958852841" type="passenger"/>
  <trip id="veh005_126" depart="32372" from="232359137" to="39697113#3" type="passenger"/>
  <trip id="veh005_127" depart="28985" from="169004589#0" to="40040179#12" type="passenger"/>
  <trip id="veh005_128" depart="33712" from="-15676150#0" to="958852841" type="passenger"/>
  <trip id="veh005_129" depart="32397" from="238492234#0" to="74450559" type="passenger"/>
  <trip id="veh005_130" depart="35735" from="1262057043#2" to="163764181#0" type="passenger"/>
  <trip id="veh005_131" depart="29283" from="958852841" to="-39750994#4" type="passenger"/>
  <trip id="veh005_132" depart="30335" from="958852841" to="237271809#4" type="passenger"/>
  <trip id="veh005_133" depart="32640" from="238492234#0" to="1064476622#0" type="passenger"/>
  <trip id="veh005_134" depart="32691" from="-39750994#4" to="238492234#0" type="passenger"/>
  <trip id="veh005_135" depart="30679" from="169004589#0" to="163764181#0" type="passenger"/>
  <trip id="veh005_136" depart="32843" from="-15676150#0" to="50843248" type="passenger"/>
  <trip id="veh005_137" depart="30142" from="958852841" to="-52205556" type="passenger"/>
  <trip id="veh005_138" depart="34916" from="1262057043#2" to="50843170" type="passenger"/>
  <trip id="veh005_139" depart="29162" from="-1068139751" to="-50323232#2" type="passenger"/>
  <trip id="veh005_140" depart="28851" from="-51296363" to="40784659#1" type="passenger"/>
  <trip id="veh005_141" depart="33350" from="769245718" to="74450559" type="passenger"/>
  <trip id="veh005_142" depart="29894" from="30620777" to="74450559" type="passenger"/>
  <trip id="veh005_143" depart="29082" from="-50371367#1" to="1005394020#2" type="passenger"/>
  <trip id="veh005_144" depart="31270" from="237271809#4" to="47281535" type="passenger"/>
  <trip id="veh005_145" depart="29707" from="-50323232#2" to="-220770272" type="passenger"/>
  <trip id="veh005_146" depart="34999" from="47225638#0" to="1067953247#1" type="passenger"/>
  <trip id="veh005_147" depart="34731" from="47386145" to="769245718" type="passenger"/>
  <trip id="veh005_148" depart="32820" from="1235145933" to="169004589#0" type="passenger"/>
  <trip id="veh005_149" depart="35948" from="900390006#1" to="679060031" type="passenger"/>
  <trip id="veh005_150" depart="32218" from="50843248" to="1016015052" type="passenger"/>
  <trip id="veh005_151" depart="34719" from="71293415#1" to="163764181#0" type="passenger"/>
  <trip id="veh005_152" depart="33941" from="136752699" to="136014464#0" type="passenger"/>
  <trip id="veh005_153" depart="29355" from="958852841" to="136014464#0" type="passenger"/>
  <trip id="veh005_154" depart="32676" from="-176637359#2" to="-1225879469" type="passenger"/>
  <trip id="veh005_155" depart="30477" from="1064816194" to="-176637359#2" type="passenger"/>
  <trip id="veh005_156" depart="35298" from="900390006#1" to="47225638#0" type="passenger"/>
  <trip id="veh005_157" depart="33752" from="-15676150#0" to="39674883#1" type="passenger"/>
  <trip id="veh005_158" depart="33169" from="1235145933" to="39674883#1" type="passenger"/>
  <trip id="veh005_159" depart="30555" from="30620777" to="71293415#1" type="passenger"/>
  <trip id="veh005_160" depart="34313" from="958852841" to="238492234#0" type="passenger"/>
  <trip id="veh005_161" depart="35443" from="-40035992#5" to="1067953247#1" type="passenger"/>
  <trip id="veh005_162" depart="28861" from="457547879#4" to="958852841" type="passenger"/>
  <trip id="veh005_163" depart="29198" from="163764181#0" to="-220770272" type="passenger"/>
  <trip id="veh005_164" depart="35718" from="-50323232#2" to="143996571#1" type="passenger"/>
  <trip id="veh005_165" depart="29086" from="232359137" to="-50323232#2" type="passenger"/>
  <trip id="veh005_166" depart="31941" from="136014464#0" to="593755854" type="passenger"/>
  <trip id="veh005_167" depart="29535" from="35422924#4" to="12088962#10" type="passenger"/>
  <trip id="veh005_168" depart="34008" from="-238492234#0" to="238492234#0" type="passenger"/>
  <trip id="veh005_169" depart="29109" from="49219226" to="47386145" type="passenger"/>
  <trip id="veh005_170" depart="34651" from="49219226" to="-220770272" type="passenger"/>
  <trip id="veh005_171" depart="32418" from="-220770272" to="-50323232#2" type="passenger"/>
  <trip id="veh005_172" depart="31524" from="12088962#10" to="40040179#12" type="passenger"/>
  <trip id="veh005_173" depart="32244" from="1262057048#0" to="240666074#0" type="passenger"/>
  <trip id="veh005_174" depart="31891" from="71293415#1" to="163764181#0" type="passenger"/>
  <trip id="veh005_175" depart="29049" from="1387458837" to="85796876#1" type="passenger"/>
  <trip id="veh005_176" depart="35452" from="1235145933" to="169004589#0" type="passenger"/>
  <trip id="veh005_177" depart="33396" from="49219226" to="1016015052" type="passenger"/>
  <trip id="veh005_178" depart="32303" from="-1124366653" to="39674883#1" type="passenger"/>
  <trip id="veh005_179" depart="34809" from="1067953247#1" to="47225638#0" type="passenger"/>
  <trip id="veh005_180" depart="34861" from="-52205556" to="1262057043#2" type="passenger"/>
  <trip id="veh005_181" depart="33214" from="238492234#0" to="40784659#1" type="passenger"/>
  <trip id="veh005_182" depart="30951" from="-51296363" to="-176637359#2" type="passenger"/>
  <trip id="veh005_183" depart="29415" from="39697113#3" to="-51296363" type="passenger"/>
  <trip id="veh005_184" depart="34788" from="39658122#0" to="240666074#0" type="passenger"/>
  <trip id="veh005_185" depart="28943" from="593755854" to="-1225879469" type="passenger"/>
  <trip id="veh005_186" depart="29842" from="-52205556" to="47386145" type="passenger"/>
  <trip id="veh005_187" depart="31193" from="-50323232#2" to="238492234#0" type="passenger"/>
  <trip id="veh005_188" depart="33284" from="1235145933" to="39689392#0" type="passenger"/>
  <trip id="veh005_189" depart="35794" from="-39750994#4" to="47386145" type="passenger"/>
  <trip id="veh005_190" depart="35205" from="47386124" to="50843248" type="passenger"/>
  <trip id="veh005_191" depart="35547" from="457547879#4" to="446640439" type="passenger"/>
  <trip id="veh005_192" depart="30694" from="39697113#3" to="504456844" type="passenger"/>
  <trip id="veh005_193" depart="31135" from="40784659#1" to="504456844" type="passenger"/>
  <trip id="veh005_194" depart="34128" from="39697113#3" to="74450559" type="passenger"/>
  <trip id="veh005_195" depart="33756" from="47386145" to="143996571#1" type="passenger"/>
  <trip id="veh005_196" depart="32484" from="-220770272" to="-39750994#4" type="passenger"/>
  <trip id="veh005_197" depart="35423" from="-50323232#2" to="39674883#1" type="passenger"/>
  <trip id="veh005_198" depart="32811" from="237271809#4" to="136014464#0" type="passenger"/>
  <trip id="veh005_199" depart="33352" from="-39750994#4" to="958852841" type="passenger"/>
  <trip id="veh005_200" depart="32031" from="-220770272" to="74450559" type="passenger"/>
  <trip id="veh005_201" depart="33909" from="-1068139751" to="1387458837" type="passenger"/>
  <trip id="veh005_202" depart="32628" from="49171011#1" to="1064816194" type="passenger"/>
  <trip id="veh005_203" depart="35116" from="-50383097#9" to="-1068139751" type="passenger"/>
  <trip id="veh005_204" depart="31812" from="-40035904#1" to="593755854" type="passenger"/>
  <trip id="veh005_205" depart="31586" from="238492234#0" to="143996571#1" type="passenger"/>
  <trip id="veh005_206" depart="30008" from="10738871#0" to="1235145933" type="passenger"/>
  <trip id="veh005_207" depart="33885" from="41862226#1" to="958852841" type="passenger"/>
  <trip id="veh005_208" depart="32177" from="40784659#1" to="237271809#4" type="passenger"/>
  <trip id="veh005_209" depart="30976" from="1118804256#1" to="958852841" type="passenger"/>
  <trip id="veh005_210" depart="34183" from="238492234#0" to="958852841" type="passenger"/>
  <trip id="veh005_211" depart="34280" from="163764181#0" to="74450559" type="passenger"/>
  <trip id="veh005_212" depart="30688" from="238492234#0" to="39697113#3" type="passenger"/>
  <trip id="veh005_213" depart="30812" from="238492234#0" to="10738871#0" type="passenger"/>
  <trip id="veh005_214" depart="31592" from="12088962#10" to="49171011#1" type="passenger"/>
  <trip id="veh005_215" depart="29999" from="238492234#0" to="958852841" type="passenger"/>
  <trip id="veh005_216" depart="30663" from="238492234#0" to="1235145933" type="passenger"/>
  <trip id="veh005_217" depart="33121" from="446640439" to="1235145933" type="passenger"/>
  <trip id="veh005_218" depart="35284" from="-1068139751" to="958852841" type="passenger"/>
  <trip id="veh005_219" depart="34017" from="39697113#3" to="-50371367#1" type="passenger"/>
  <trip id="veh005_220" depart="31916" from="240666074#0" to="39658122#0" type="passenger"/>
  <trip id="veh005_221" depart="33787" from="74450559" to="-504456842" type="passenger"/>
  <trip id="veh005_222" depart="30194" from="238492234#0" to="74450559" type="passenger"/>
  <trip id="veh005_223" depart="35391" from="238492234#0" to="1016015052" type="passenger"/>
  <trip id="veh005_224" depart="31477" from="40040179#12" to="-1387302975" type="passenger"/>
  <trip id="veh005_225" depart="29934" from="446640439" to="769245718" type="passenger"/>
  <trip id="veh005_226" depart="34925" from="40784659#1" to="143996571#1" type="passenger"/>
  <trip id="veh005_227" depart="31042" from="1235145933" to="238492234#0" type="passenger"/>
  <trip id="veh005_228" depart="30893" from="-126724514#0" to="136014464#0" type="passenger"/>
  <trip id="veh005_229" depart="31849" from="446640439" to="163764181#0" type="passenger"/>
  <trip id="veh005_230" depart="30855" from="-40035992#5" to="-1124366653" type="passenger"/>
  <trip id="veh005_231" depart="34129" from="136752699" to="169004589#0" type="passenger"/>
  <trip id="veh005_232" depart="33865" from="958852841" to="-50843173#3" type="passenger"/>
  <trip id="veh005_233" depart="35948" from="-50371367#1" to="1005394020#2" type="passenger"/>
  <trip id="veh005_234" depart="33649" from="958852841" to="163764181#0" type="passenger"/>
  <trip id="veh005_235" depart="30933" from="1092108127" to="136014464#0" type="passenger"/>
  <trip id="veh005_236" depart="30503" from="958852841" to="163764181#0" type="passenger"/>
  <trip id="veh005_237" depart="33823" from="-50843173#3" to="49219226" type="passenger"/>
  <trip id="veh005_238" depart="34394" from="-176637359#2" to="30620777" type="passenger"/>
  <trip id="veh005_239" depart="34116" from="47386145" to="49228821#1" type="passenger"/>
  <trip id="veh005_240" depart="33656" from="50843248" to="49171011#1" type="passenger"/>
  <trip id="veh005_241" depart="31265" from="504456844" to="49219226" type="passenger"/>
  <trip id="veh005_242" depart="34953" from="238492234#0" to="40784659#1" type="passenger"/>
  <trip id="veh005_243" depart="33996" from="1016015052" to="30620777" type="passenger"/>
  <trip id="veh005_244" depart="29531" from="136014464#0" to="-1124366653" type="passenger"/>
  <trip id="veh005_245" depart="31383" from="446640439" to="1067953247#1" type="passenger"/>
  <trip id="veh005_246" depart="34469" from="71293415#1" to="163764181#0" type="passenger"/>
  <trip id="veh005_247" depart="29762" from="-220770272" to="30620777" type="passenger"/>
  <trip id="veh005_248" depart="31590" from="1272337500" to="446640439" type="passenger"/>
  <trip id="veh005_249" depart="32766" from="49171011#1" to="169004589#0" type="passenger"/>
  <trip id="veh005_250" depart="31412" from="237271809#4" to="-1080217656#1" type="passenger"/>
  <trip id="veh005_251" depart="34265" from="-220770272" to="-39750994#4" type="passenger"/>
  <trip id="veh005_252" depart="33648" from="237271809#4" to="-226855595#1" type="passenger"/>
  <trip id="veh005_253" depart="32929" from="-1387302975" to="769245718" type="passenger"/>
  <trip id="veh005_254" depart="31121" from="30620777" to="47386145" type="passenger"/>
  <trip id="veh005_255" depart="30838" from="958852841" to="47386145" type="passenger"/>
  <trip id="veh005_256" depart="34062" from="-50323232#2" to="40784659#1" type="passenger"/>
  <trip id="veh005_257" depart="30518" from="39689392#0" to="1235145933" type="passenger"/>
  <trip id="veh005_258" depart="30351" from="136014464#0" to="143996571#1" type="passenger"/>
  <trip id="veh005_259" depart="34492" from="240666074#0" to="39658122#0" type="passenger"/>
  <trip id="veh005_260" depart="35456" from="-50323232#2" to="47386145" type="passenger"/>
  <trip id="veh005_261" depart="31214" from="-50323232#2" to="-39750994#4" type="passenger"/>
  <trip id="veh005_262" depart="33649" from="74450559" to="-176637359#2" type="passenger"/>
  <trip id="veh005_263" depart="33381" from="136014464#0" to="39697113#3" type="passenger"/>
  <trip id="veh005_264" depart="35157" from="958852841" to="-504456842" type="passenger"/>
  <trip id="veh005_265" depart="30087" from="40784659#1" to="71293415#1" type="passenger"/>
  <trip id="veh005_266" depart="29088" from="-40035904#1" to="47386145" type="passenger"/>
  <trip id="veh005_267" depart="34489" from="-50383097#9" to="1068144844" type="passenger"/>
  <trip id="veh005_268" depart="35274" from="1005394020#2" to="39697113#3" type="passenger"/>
  <trip id="veh005_269" depart="33939" from="39697113#3" to="47386145" type="passenger"/>
  <trip id="veh005_270" depart="31112" from="40784659#1" to="1064816194" type="passenger"/>
  <trip id="veh005_271" depart="34528" from="169004589#0" to="143996571#1" type="passenger"/>
  <trip id="veh005_272" depart="30892" from="40784659#1" to="39838789#2" type="passenger"/>
  <trip id="veh005_273" depart="31191" from="-50323232#2" to="958852841" type="passenger"/>
  <trip id="veh005_274" depart="30686" from="504456844" to="1092108127" type="passenger"/>
  <trip id="veh005_275" depart="34455" from="238492234#0" to="-50843173#3" type="passenger"/>
  <trip id="veh005_276" depart="28875" from="1235145933" to="50843248" type="passenger"/>
  <trip id="veh005_277" depart="32206" from="39697113#3" to="1064816194" type="passenger"/>
  <trip id="veh005_278" depart="32520" from="49171011#1" to="238492234#0" type="passenger"/>
  <trip id="veh005_279" depart="29477" from="-451728952#4" to="143996571#1" type="passenger"/>
  <trip id="veh005_280" depart="32096" from="1262057048#0" to="-39750994#4" type="passenger"/>
  <trip id="veh005_281" depart="32090" from="1005394020#2" to="240666074#0" type="passenger"/>
  <trip id="veh005_282" depart="29616" from="1064476622#0" to="446640439" type="passenger"/>
  <trip id="veh005_283" depart="32472" from="446640439" to="-176637359#2" type="passenger"/>
  <trip id="veh005_284" depart="30120" from="446640439" to="-1068139751" type="passenger"/>
  <trip id="veh005_285" depart="35004" from="-1080217656#1" to="-176637359#2" type="passenger"/>
  <trip id="veh005_286" depart="31409" from="238492234#0" to="1064816194" type="passenger"/>
  <trip id="veh005_287" depart="35780" from="-15676150#0" to="-238492234#0" type="passenger"/>
  <trip id="veh005_288" depart="31050" from="47386145" to="237271809#4" type="passenger"/>
  <trip id="veh005_289" depart="29754" from="12088962#10" to="958852841" type="passenger"/>
  <trip id="veh005_290" depart="30882" from="238492234#0" to="49171011#1" type="passenger"/>
  <trip id="veh005_291" depart="35202" from="9178721#3" to="-1124366653" type="passenger"/>
  <trip id="veh005_292" depart="34637" from="-52205556" to="169004589#0" type="passenger"/>
  <trip id="veh005_293" depart="35927" from="238492234#0" to="-39750994#4" type="passenger"/>
  <trip id="veh005_294" depart="33286" from="1262057043#2" to="958852841" type="passenger"/>
  <trip id="veh005_295" depart="30569" from="-39750994#4" to="1272337500" type="passenger"/>
  <trip id="veh005_296" depart="29570" from="-176637359#2" to="238492234#0" type="passenger"/>
  <trip id="veh005_297" depart="31077" from="237271809#4" to="47386145" type="passenger"/>
  <trip id="veh005_298" depart="30148" from="958852841" to="-52205556" type="passenger"/>
  <trip id="veh005_299" depart="29257" from="49228821#1" to="1092108127" type="passenger"/>
  <trip id="veh005_300" depart="33746" from="40784659#1" to="47386145" type="passenger"/>
  <trip id="veh005_301" depart="33350" from="238492234#0" to="-40035992#5" type="passenger"/>
  <trip id="veh005_302" depart="29143" from="-50323232#2" to="163764181#0" type="passenger"/>
  <trip id="veh005_303" depart="32483" from="457547879#4" to="1092108127" type="passenger"/>
  <trip id="veh005_304" depart="33655" from="1064816194" to="-220770272" type="passenger"/>
  <trip id="veh005_305" depart="34714" from="-39750994#4" to="47386145" type="passenger"/>
  <trip id="veh005_306" depart="29916" from="504456844" to="238492234#0" type="passenger"/>
  <trip id="veh005_307" depart="30769" from="240666074#0" to="446640439" type="passenger"/>
  <trip id="veh005_308" depart="34856" from="-50323232#2" to="769245718" type="passenger"/>
  <trip id="veh005_309" depart="29015" from="74450559" to="-451728952#4" type="passenger"/>
  <trip id="veh005_310" depart="29008" from="-220770272" to="1016015052" type="passenger"/>
  <trip id="veh005_311" depart="34527" from="39838789#2" to="1064816194" type="passenger"/>
  <trip id="veh005_312" depart="31827" from="47386145" to="1005394020#2" type="passenger"/>
  <trip id="veh005_313" depart="30266" from="39697113#3" to="9704194#7" type="passenger"/>
  <trip id="veh005_314" depart="30266" from="-176637359#2" to="238492234#0" type="passenger"/>
  <trip id="veh005_315" depart="33796" from="-50323232#2" to="30620777" type="passenger"/>
  <trip id="veh005_316" depart="30992" from="9704194#7" to="-220770272" type="passenger"/>
  <trip id="veh005_317" depart="29156" from="39697113#3" to="-220770272" type="passenger"/>
  <trip id="veh005_318" depart="35478" from="1235145933" to="238492234#0" type="passenger"/>
  <trip id="veh005_319" depart="32539" from="-220770272" to="85796876#1" type="passenger"/>
  <trip id="veh005_320" depart="35286" from="1092108127" to="446640439" type="passenger"/>
  <trip id="veh005_321" depart="34872" from="12088962#10" to="85796876#1" type="passenger"/>
  <trip id="veh005_322" depart="29110" from="-1387302975" to="-220770272" type="passenger"/>
  <trip id="veh005_323" depart="33709" from="-40035904#1" to="-1225879469" type="passenger"/>
  <trip id="veh005_324" depart="29999" from="9704194#7" to="47386145" type="passenger"/>