<trips>
  <trip id="veh005_0" depart="32516" from="220775319" to="40299122#2" type="passenger"/>
  <trip id="veh005_1" depart="31966" from="47386111#1" to="-1092108194" type="passenger"/>
  <trip id="veh005_2" depart="32228" from="-70662727#0" to="50843196#0" type="passenger"/>
  <trip id="veh005_3" depart="28805" from="10629709#0" to="1092600147#1" type="passenger"/>
  <trip id="veh005_4" depart="32744" from="240666074#4" to="1092600147#1" type="passenger"/>
  <trip id="veh005_5" depart="35482" from="159942190" to="175760666" type="passenger"/>
  <trip id="veh005_6" depart="30684" from="177743535#0" to="47386111#1" type="passenger"/>
  <trip id="veh005_7" depart="32422" from="-1092108194" to="47386145" type="passenger"/>
  <trip id="veh005_8" depart="31865" from="1092600147#1" to="136232037#0" type="passenger"/>
  <trip id="veh005_9" depart="31600" from="159942190" to="220775319" type="passenger"/>
  <trip id="veh005_10" depart="30754" from="47386111#1" to="-33683398#2" type="passenger"/>
  <trip id="veh005_11" depart="29089" from="237271809#2" to="159942190" type="passenger"/>
  <trip id="veh005_12" depart="33537" from="240640942#1" to="1326094907#0" type="passenger"/>
  <trip id="veh005_13" depart="30871" from="-70662727#0" to="998773447#1" type="passenger"/>
  <trip id="veh005_14" depart="30659" from="1326094907#0" to="10632130" type="passenger"/>
  <trip id="veh005_15" depart="30590" from="177743535#0" to="47283778#2" type="passenger"/>
  <trip id="veh005_16" depart="32213" from="43763701#3" to="240034070#0" type="passenger"/>
  <trip id="veh005_17" depart="31145" from="593755854" to="-238219473" type="passenger"/>
  <trip id="veh005_18" depart="35428" from="-10632130" to="-47279971" type="passenger"/>
  <trip id="veh005_19" depart="33163" from="441994803" to="240666074#4" type="passenger"/>
  <trip id="veh005_20" depart="33409" from="47386111#1" to="24623782#1" type="passenger"/>
  <trip id="veh005_21" depart="34781" from="237271809#2" to="240666074#4" type="passenger"/>
  <trip id="veh005_22" depart="29733" from="47386145" to="1085107695" type="passenger"/>
  <trip id="veh005_23" depart="32776" from="50323222#1" to="-226907342#1" type="passenger"/>
  <trip id="veh005_24" depart="33371" from="-1092108194" to="593755854" type="passenger"/>
  <trip id="veh005_25" depart="30195" from="1363506394#4" to="175760666" type="passenger"/>
  <trip id="veh005_26" depart="29478" from="998773447#1" to="1020246871" type="passenger"/>
  <trip id="veh005_27" depart="33899" from="240640943#1" to="47386145" type="passenger"/>
  <trip id="veh005_28" depart="32368" from="998773447#1" to="237271809#2" type="passenger"/>
  <trip id="veh005_29" depart="33779" from="1064853456" to="-33683398#2" type="passenger"/>
  <trip id="veh005_30" depart="33034" from="1064799814" to="50323222#1" type="passenger"/>
  <trip id="veh005_31" depart="34601" from="-769600704" to="177743535#0" type="passenger"/>
  <trip id="veh005_32" depart="35595" from="50323222#1" to="24446738#3" type="passenger"/>
  <trip id="veh005_33" depart="31634" from="175760666" to="-1092108194" type="passenger"/>
  <trip id="veh005_34" depart="35900" from="40299122#2" to="900386124#0" type="passenger"/>
  <trip id="veh005_35" depart="30427" from="237271809#3" to="44472940#0" type="passenger"/>
  <trip id="veh005_36" depart="31618" from="240640942#1" to="237271809#2" type="passenger"/>
  <trip id="veh005_37" depart="32436" from="47386145" to="240034070#0" type="passenger"/>
  <trip id="veh005_38" depart="29350" from="175637233#0" to="240640942#1" type="passenger"/>
  <trip id="veh005_39" depart="29950" from="1064853456" to="1064799814" type="passenger"/>
  <trip id="veh005_40" depart="32822" from="159538498#1" to="47386145" type="passenger"/>
  <trip id="veh005_41" depart="32852" from="47267014#1" to="-768805831#1" type="passenger"/>
  <trip id="veh005_42" depart="28881" from="998773447#1" to="47386111#1" type="passenger"/>
  <trip id="veh005_43" depart="30033" from="237271809#3" to="44472940#0" type="passenger"/>
  <trip id="veh005_44" depart="35903" from="177743535#0" to="610738424#0" type="passenger"/>
  <trip id="veh005_45" depart="34634" from="50843196#0" to="1091984826#0" type="passenger"/>
  <trip id="veh005_46" depart="29525" from="50325553" to="240640942#1" type="passenger"/>
  <trip id="veh005_47" depart="31320" from="610738423#1" to="-10632130" type="passenger"/>
  <trip id="veh005_48" depart="33181" from="-1092108194" to="177743535#0" type="passenger"/>
  <trip id="veh005_49" depart="31037" from="1363506394#4" to="446640439" type="passenger"/>
  <trip id="veh005_50" depart="29461" from="1091984826#0" to="240007894#1" type="passenger"/>
  <trip id="veh005_51" depart="29227" from="47386111#1" to="220775319" type="passenger"/>
  <trip id="veh005_52" depart="31697" from="24446738#3" to="9704194#4" type="passenger"/>
  <trip id="veh005_53" depart="35023" from="177743535#0" to="47386111#1" type="passenger"/>
  <trip id="veh005_54" depart="32960" from="-863774952#0" to="240640942#1" type="passenger"/>
  <trip id="veh005_55" depart="35245" from="240034070#0" to="-240666072#0" type="passenger"/>
  <trip id="veh005_56" depart="35432" from="1207401650" to="175760666" type="passenger"/>
  <trip id="veh005_57" depart="29342" from="47386111#1" to="-33683398#2" type="passenger"/>
  <trip id="veh005_58" depart="34573" from="237271809#2" to="1324706272" type="passenger"/>
  <trip id="veh005_59" depart="30808" from="-863774952#0" to="240034070#0" type="passenger"/>
  <trip id="veh005_60" depart="32589" from="220775319" to="610738424#0" type="passenger"/>
  <trip id="veh005_61" depart="32563" from="173471112" to="1326094907#0" type="passenger"/>
  <trip id="veh005_62" depart="34026" from="-769600704" to="24465651#1" type="passenger"/>
  <trip id="veh005_63" depart="28994" from="998773447#1" to="237271809#3" type="passenger"/>
  <trip id="veh005_64" depart="34367" from="1092600147#1" to="159538498#1" type="passenger"/>
  <trip id="veh005_65" depart="33242" from="1324706272" to="-768805831#1" type="passenger"/>
  <trip id="veh005_66" depart="35238" from="760475718" to="50843198#3" type="passenger"/>
  <trip id="veh005_67" depart="33633" from="240034070#0" to="47386145" type="passenger"/>
  <trip id="veh005_68" depart="35278" from="593755854" to="998773447#1" type="passenger"/>
  <trip id="veh005_69" depart="35107" from="137220971" to="-70662723#0" type="passenger"/>
  <trip id="veh005_70" depart="34799" from="-10738871#0" to="177743535#0" type="passenger"/>
  <trip id="veh005_71" depart="29641" from="50323222#1" to="24465651#1" type="passenger"/>
  <trip id="veh005_72" depart="31525" from="47386145" to="-70662723#0" type="passenger"/>
  <trip id="veh005_73" depart="29691" from="998773447#1" to="137220971" type="passenger"/>
  <trip id="veh005_74" depart="33898" from="40784659#0" to="1326094907#0" type="passenger"/>
  <trip id="veh005_75" depart="31665" from="-33683398#2" to="137220971" type="passenger"/>
  <trip id="veh005_76" depart="32010" from="446640439" to="50325553" type="passenger"/>
  <trip id="veh005_77" depart="30525" from="50323222#1" to="1064799814" type="passenger"/>
  <trip id="veh005_78" depart="34217" from="1324706272" to="-240666072#0" type="passenger"/>
  <trip id="veh005_79" depart="32447" from="40784659#0" to="1092600147#1" type="passenger"/>
  <trip id="veh005_80" depart="35884" from="-769600704" to="1119184638#0" type="passenger"/>
  <trip id="veh005_81" depart="32729" from="-238219473" to="1363506394#4" type="passenger"/>
  <trip id="veh005_82" depart="32547" from="175637233#0" to="12088974#3" type="passenger"/>
  <trip id="veh005_83" depart="35844" from="47386145" to="1091984826#0" type="passenger"/>
  <trip id="veh005_84" depart="29814" from="-1092108194" to="240034070#0" type="passenger"/>
  <trip id="veh005_85" depart="32875" from="-769600704" to="12088974#3" type="passenger"/>
  <trip id="veh005_86" depart="33471" from="12088974#3" to="1068434254#0" type="passenger"/>
  <trip id="veh005_87" depart="28988" from="47386145" to="-70662723#0" type="passenger"/>
  <trip id="veh005_88" depart="31907" from="177743535#0" to="-50323229" type="passenger"/>
  <trip id="veh005_89" depart="33627" from="-40784652#0" to="177743535#0" type="passenger"/>
  <trip id="veh005_90" depart="32583" from="-49073765#0" to="237271809#3" type="passenger"/>
  <trip id="veh005_91" depart="34549" from="1091984826#0" to="44472940#0" type="passenger"/>
  <trip id="veh005_92" depart="33821" from="-70662727#0" to="50843196#0" type="passenger"/>
  <trip id="veh005_93" depart="32772" from="177743535#0" to="50323222#1" type="passenger"/>
  <trip id="veh005_94" depart="30241" from="9704194#4" to="1085107695" type="passenger"/>
  <trip id="veh005_95" depart="33915" from="177743535#0" to="68868377" type="passenger"/>
  <trip id="veh005_96" depart="31987" from="240640942#1" to="50843198#3" type="passenger"/>
  <trip id="veh005_97" depart="32528" from="175637233#0" to="47386145" type="passenger"/>
  <trip id="veh005_98" depart="32988" from="50323222#1" to="159942190" type="passenger"/>
  <trip id="veh005_99" depart="32243" from="68868377" to="-1273359359#1" type="passenger"/>
  <trip id="veh005_100" depart="29654" from="9704194#4" to="145007016" type="passenger"/>
  <trip id="veh005_101" depart="34248" from="-40784652#0" to="44472940#0" type="passenger"/>
  <trip id="veh005_102" depart="35588" from="47386145" to="1119184638#0" type="passenger"/>
  <trip id="veh005_103" depart="31482" from="1326094907#0" to="47386145" type="passenger"/>
  <trip id="veh005_104" depart="31391" from="40299122#2" to="177743535#0" type="passenger"/>
  <trip id="veh005_105" depart="34638" from="68868377" to="240640943#1" type="passenger"/>
  <trip id="veh005_106" depart="34119" from="1092600147#1" to="610738424#0" type="passenger"/>
  <trip id="veh005_107" depart="29559" from="240034070#0" to="24623782#1" type="passenger"/>
  <trip id="veh005_108" depart="33917" from="227960847#0" to="136232037#0" type="passenger"/>
  <trip id="veh005_109" depart="33025" from="240007894#1" to="593755854" type="passenger"/>
  <trip id="veh005_110" depart="34643" from="50323222#1" to="47386145" type="passenger"/>
  <trip id="veh005_111" depart="32896" from="-40784652#0" to="1092600147#1" type="passenger"/>
  <trip id="veh005_112" depart="29311" from="593755854" to="177743535#0" type="passenger"/>
  <trip id="veh005_113" depart="34498" from="1324706272" to="44472940#0" type="passenger"/>
  <trip id="veh005_114" depart="28857" from="-1092108194" to="-72083131" type="passenger"/>
  <trip id="veh005_115" depart="30727" from="446640439" to="68868377" type="passenger"/>
  <trip id="veh005_116" depart="35363" from="50323222#1" to="441994803" type="passenger"/>
  <trip id="veh005_117" depart="30086" from="237271809#2" to="610738424#0" type="passenger"/>
  <trip id="veh005_118" depart="35889" from="446640439" to="-1092108194" type="passenger"/>
  <trip id="veh005_119" depart="30177" from="159538498#1" to="240640942#1" type="passenger"/>
  <trip id="veh005_120" depart="29831" from="159942190" to="240640943#1" type="passenger"/>
  <trip id="veh005_121" depart="29797" from="446640439" to="10632130" type="passenger"/>
  <trip id="veh005_122" depart="34047" from="1092600147#1" to="610738423#1" type="passenger"/>
  <trip id="veh005_123" depart="35096" from="1085107695" to="177743535#0" type="passenger"/>
  <trip id="veh005_124" depart="29093" from="1326094907#0" to="-70662723#0" type="passenger"/>
  <trip id="veh005_125" depart="31505" from="47267014#1" to="47386111#1" type="passenger"/>
  <trip id="veh005_126" depart="31415" from="-769600704" to="1326094907#0" type="passenger"/>
  <trip id="veh005_127" depart="32314" from="-768805831#1" to="968332515#0" type="passenger"/>
  <trip id="veh005_128" depart="35106" from="47386145" to="47386111#1" type="passenger"/>
  <trip id="veh005_129" depart="33070" from="-10738871#0" to="220775319" type="passenger"/>
  <trip id="veh005_130" depart="32372" from="47386145" to="50323222#1" type="passenger"/>
  <trip id="veh005_131" depart="28985" from="-238219473" to="159942190" type="passenger"/>
  <trip id="veh005_132" depart="33712" from="44472940#1" to="610738424#0" type="passenger"/>
  <trip id="veh005_133" depart="32397" from="-769600704" to="177743535#0" type="passenger"/>
  <trip id="veh005_134" depart="35735" from="-768805831#1" to="240640942#1" type="passenger"/>
  <trip id="veh005_135" depart="29283" from="610738424#0" to="-33683398#2" type="passenger"/>
  <trip id="veh005_136" depart="30335" from="610738424#0" to="237271809#2" type="passenger"/>
  <trip id="veh005_137" depart="32640" from="177743535#0" to="-50323229" type="passenger"/>
  <trip id="veh005_138" depart="32691" from="-33683398#2" to="177743535#0" type="passenger"/>
  <trip id="veh005_139" depart="30679" from="237271809#3" to="240640942#1" type="passenger"/>
  <trip id="veh005_140" depart="32843" from="47267014#1" to="173471112" type="passenger"/>
  <trip id="veh005_141" depart="30142" from="610738424#0" to="240640942#1" type="passenger"/>
  <trip id="veh005_142" depart="34916" from="-768805831#1" to="50843198#3" type="passenger"/>
  <trip id="veh005_143" depart="29162" from="40784659#1" to="593755854" type="passenger"/>
  <trip id="veh005_144" depart="28851" from="50323222#1" to="-40784652#0" type="passenger"/>
  <trip id="veh005_145" depart="33350" from="-1092108194" to="177743535#0" type="passenger"/>
  <trip id="veh005_146" depart="29894" from="1085107695" to="177743535#0" type="passenger"/>
  <trip id="veh005_147" depart="29082" from="-226907342#1" to="1207401650" type="passenger"/>
  <trip id="veh005_148" depart="31270" from="666271191" to="-47279971" type="passenger"/>
  <trip id="veh005_149" depart="29707" from="593755854" to="610738423#1" type="passenger"/>
  <trip id="veh005_150" depart="30903" from="12088974#3" to="-33683398#2" type="passenger"/>
  <trip id="veh005_151" depart="34447" from="50843196#0" to="47386111#1" type="passenger"/>
  <trip id="veh005_152" depart="32122" from="177743535#0" to="39659484" type="passenger"/>
  <trip id="veh005_153" depart="30362" from="50325553" to="173471112" type="passenger"/>
  <trip id="veh005_154" depart="29526" from="-768805831#1" to="1064853456" type="passenger"/>
  <trip id="veh005_155" depart="35905" from="220775319" to="1092600147#1" type="passenger"/>
  <trip id="veh005_156" depart="31577" from="50323222#1" to="1192417710" type="passenger"/>
  <trip id="veh005_157" depart="29336" from="1119184638#0" to="40784659#1" type="passenger"/>
  <trip id="veh005_158" depart="30129" from="24465651#1" to="1064799814" type="passenger"/>
  <trip id="veh005_159" depart="32671" from="-226907342#1" to="177743535#0" type="passenger"/>
  <trip id="veh005_160" depart="29735" from="666271191" to="610738423#1" type="passenger"/>
  <trip id="veh005_161" depart="30857" from="593755854" to="-47279971" type="passenger"/>
  <trip id="veh005_162" depart="30555" from="998773447#1" to="43763701#3" type="passenger"/>
  <trip id="veh005_163" depart="34313" from="610738424#0" to="177743535#0" type="passenger"/>
  <trip id="veh005_164" depart="35443" from="50323222#1" to="9704194#4" type="passenger"/>
  <trip id="veh005_165" depart="28861" from="1020246871" to="220775319" type="passenger"/>
  <trip id="veh005_166" depart="29198" from="240034070#0" to="-70662723#0" type="passenger"/>
  <trip id="veh005_167" depart="35718" from="-72083131" to="40784659#0" type="passenger"/>
  <trip id="veh005_168" depart="29086" from="47386145" to="-72083131" type="passenger"/>
  <trip id="veh005_169" depart="31941" from="10632130" to="446640439" type="passenger"/>
  <trip id="veh005_170" depart="29535" from="145007016" to="-240666072#0" type="passenger"/>
  <trip id="veh005_171" depart="34008" from="1092600147#1" to="-769600704" type="passenger"/>
  <trip id="veh005_172" depart="29109" from="1192417710" to="47386145" type="passenger"/>
  <trip id="veh005_173" depart="34651" from="1192417710" to="-70662723#0" type="passenger"/>
  <trip id="veh005_174" depart="32418" from="-70662723#0" to="-72083131" type="passenger"/>
  <trip id="veh005_175" depart="31524" from="-240666072#0" to="159942190" type="passenger"/>
  <trip id="veh005_176" depart="32244" from="159942190" to="-1092108194" type="passenger"/>
  <trip id="veh005_177" depart="31891" from="1064853456" to="1326094907#0" type="passenger"/>
  <trip id="veh005_178" depart="29049" from="-70662727#0" to="610738423#1" type="passenger"/>
  <trip id="veh005_179" depart="35452" from="446640439" to="-238219473" type="passenger"/>
  <trip id="veh005_180" depart="33396" from="1192417710" to="44472940#1" type="passenger"/>
  <trip id="veh005_181" depart="32303" from="1085107695" to="175760666" type="passenger"/>
  <trip id="veh005_182" depart="30061" from="12088974#3" to="159942190" type="passenger"/>
  <trip id="veh005_183" depart="34874" from="-768805831#1" to="-33683398#2" type="passenger"/>
  <trip id="veh005_184" depart="32568" from="-40784652#0" to="998773447#1" type="passenger"/>
  <trip id="veh005_185" depart="30008" from="240666074#4" to="40784659#0" type="passenger"/>
  <trip id="veh005_186" depart="35461" from="240640943#1" to="446640439" type="passenger"/>
  <trip id="veh005_187" depart="28943" from="159942190" to="240640942#1" type="passenger"/>
  <trip id="veh005_188" depart="29842" from="240640942#1" to="47386145" type="passenger"/>
  <trip id="veh005_189" depart="31193" from="-72083131" to="177743535#0" type="passenger"/>
  <trip id="veh005_190" depart="33284" from="47386111#1" to="-10632130" type="passenger"/>
  <trip id="veh005_191" depart="35794" from="-33683398#2" to="24623782#1" type="passenger"/>
  <trip id="veh005_192" depart="35205" from="446640439" to="173471112" type="passenger"/>
  <trip id="veh005_193" depart="35547" from="1020246871" to="998773447#1" type="passenger"/>
  <trip id="veh005_194" depart="30694" from="50323222#1" to="240640942#1" type="passenger"/>
  <trip id="veh005_195" depart="31135" from="-40784652#0" to="1363506394#4" type="passenger"/>
  <trip id="veh005_196" depart="34128" from="1091984826#0" to="177743535#0" type="passenger"/>
  <trip id="veh005_197" depart="33756" from="-863774952#0" to="40784659#0" type="passenger"/>
  <trip id="veh005_198" depart="32484" from="-70662723#0" to="-33683398#2" type="passenger"/>
  <trip id="veh005_199" depart="35423" from="593755854" to="175760666" type="passenger"/>
  <trip id="veh005_200" depart="32811" from="237271809#2" to="10632130" type="passenger"/>
  <trip id="veh005_201" depart="33352" from="159942190" to="220775319" type="passenger"/>
  <trip id="veh005_202" depart="32031" from="610738423#1" to="177743535#0" type="passenger"/>
  <trip id="veh005_203" depart="33909" from="40784659#1" to="-70662727#0" type="passenger"/>
  <trip id="veh005_204" depart="32628" from="-33683398#2" to="1064799814" type="passenger"/>
  <trip id="veh005_205" depart="35116" from="-70662727#0" to="40784659#1" type="passenger"/>
  <trip id="veh005_206" depart="31812" from="10629709#0" to="-232359138" type="passenger"/>
  <trip id="veh005_207" depart="31586" from="-769600704" to="40784659#0" type="passenger"/>
  <trip id="veh005_208" depart="30008" from="968332515#0" to="47386111#1" type="passenger"/>
  <trip id="veh005_209" depart="33885" from="175637233#0" to="220775319" type="passenger"/>
  <trip id="veh005_210" depart="32177" from="-40784652#0" to="666271191" type="passenger"/>
  <trip id="veh005_211" depart="30976" from="760475718" to="610738424#0" type="passenger"/>
  <trip id="veh005_212" depart="34183" from="-769600704" to="610738424#0" type="passenger"/>
  <trip id="veh005_213" depart="34280" from="240034070#0" to="177743535#0" type="passenger"/>
  <trip id="veh005_214" depart="30688" from="-769600704" to="1091984826#0" type="passenger"/>
  <trip id="veh005_215" depart="30812" from="177743535#0" to="968332515#0" type="passenger"/>
  <trip id="veh005_216" depart="31592" from="1207401650" to="-768805831#1" type="passenger"/>
  <trip id="veh005_217" depart="31756" from="177743535#0" to="-769600704" type="passenger"/>
  <trip id="veh005_218" depart="30255" from="240034070#0" to="1363506394#4" type="passenger"/>
  <trip id="veh005_219" depart="35722" from="47386111#1" to="39659484" type="passenger"/>
  <trip id="veh005_220" depart="35156" from="47386111#1" to="47386145" type="passenger"/>
  <trip id="veh005_221" depart="33238" from="610738424#0" to="237271809#2" type="passenger"/>
  <trip id="veh005_222" depart="29134" from="-226907342#1" to="50323222#1" type="passenger"/>
  <trip id="veh005_223" depart="34977" from="1064853456" to="-70662727#0" type="passenger"/>
  <trip id="veh005_224" depart="34806" from="44472940#0" to="-72083131" type="passenger"/>
  <trip id="veh005_225" depart="35953" from="177743535#0" to="44472940#0" type="passenger"/>
  <trip id="veh005_226" depart="34285" from="44472940#1" to="1020246871" type="passenger"/>
  <trip id="veh005_227" depart="33219" from="50325553" to="610738424#0" type="passenger"/>
  <trip id="veh005_228" depart="35763" from="240640943#1" to="1326094907#0" type="passenger"/>
  <trip id="veh005_229" depart="34925" from="-50323229" to="47386145" type="passenger"/>
  <trip id="veh005_230" depart="31042" from="446640439" to="-769600704" type="passenger"/>
  <trip id="veh005_231" depart="30893" from="593755854" to="10632130" type="passenger"/>
  <trip id="veh005_232" depart="31849" from="441994803" to="240640942#1" type="passenger"/>
  <trip id="veh005_233" depart="30855" from="50323222#1" to="39659484" type="passenger"/>
  <trip id="veh005_234" depart="34129" from="1092600147#1" to="-238219473" type="passenger"/>
  <trip id="veh005_235" depart="33865" from="610738424#0" to="41866489#1" type="passenger"/>
  <trip id="veh005_236" depart="35948" from="-226907342#1" to="1207401650" type="passenger"/>
  <trip id="veh005_237" depart="33649" from="610738424#0" to="240034070#0" type="passenger"/>
  <trip id="veh005_238" depart="30933" from="159538498#1" to="10632130" type="passenger"/>
  <trip id="veh005_239" depart="30503" from="220775319" to="1326094907#0" type="passenger"/>
  <trip id="veh005_240" depart="33823" from="41866489#1" to="145007016" type="passenger"/>
  <trip id="veh005_241" depart="34394" from="240007894#1" to="1085107695" type="passenger"/>
  <trip id="veh005_242" depart="34116" from="-863774952#0" to="240640943#1" type="passenger"/>
  <trip id="veh005_243" depart="33656" from="173471112" to="-768805831#1" type="passenger"/>
  <trip id="veh005_244" depart="31265" from="1363506394#4" to="1192417710" type="passenger"/>
  <trip id="veh005_245" depart="34953" from="177743535#0" to="-40784652#0" type="passenger"/>
  <trip id="veh005_246" depart="33996" from="159538498#1" to="1085107695" type="passenger"/>
  <trip id="veh005_247" depart="29531" from="10632130" to="1085107695" type="passenger"/>
  <trip id="veh005_248" depart="31383" from="441994803" to="12088974#3" type="passenger"/>
  <trip id="veh005_249" depart="34469" from="1064853456" to="240640942#1" type="passenger"/>
  <trip id="veh005_250" depart="29762" from="-70662723#0" to="-226907342#1" type="passenger"/>
  <trip id="veh005_251" depart="31590" from="1119184635#1" to="998773447#1" type="passenger"/>
  <trip id="veh005_252" depart="32766" from="-33683398#2" to="237271809#3" type="passenger"/>
  <trip id="veh005_253" depart="31412" from="666271191" to="24465651#1" type="passenger"/>
  <trip id="veh005_254" depart="34265" from="-70662723#0" to="159942190" type="passenger"/>
  <trip id="veh005_255" depart="33648" from="237271809#2" to="1064799814" type="passenger"/>
  <trip id="veh005_256" depart="32929" from="50325553" to="-1092108194" type="passenger"/>
  <trip id="veh005_257" depart="31121" from="1085107695" to="47386145" type="passenger"/>
  <trip id="veh005_258" depart="30838" from="-70662723#0" to="47386145" type="passenger"/>
  <trip id="veh005_259" depart="34062" from="-72083131" to="-40784652#0" type="passenger"/>
  <trip id="veh005_260" depart="30518" from="-10632130" to="47386111#1" type="passenger"/>
  <trip id="veh005_261" depart="30351" from="10632130" to="40784659#0" type="passenger"/>
  <trip id="veh005_262" depart="34492" from="-1092108194" to="50843196#0" type="passenger"/>
  <trip id="veh005_263" depart="35456" from="-72083131" to="47386145" type="passenger"/>
  <trip id="veh005_264" depart="31214" from="593755854" to="159942190" type="passenger"/>
  <trip id="veh005_265" depart="33649" from="177743535#0" to="900386124#0" type="passenger"/>
  <trip id="veh005_266" depart="33381" from="10632130" to="50323222#1" type="passenger"/>
  <trip id="veh005_267" depart="35157" from="610738424#0" to="44472940#0" type="passenger"/>
  <trip id="veh005_268" depart="30087" from="47283778#2" to="1064853456" type="passenger"/>
  <trip id="veh005_269" depart="29088" from="10629709#0" to="-863774952#0" type="passenger"/>
  <trip id="veh005_270" depart="34489" from="-70662727#0" to="-240666072#0" type="passenger"/>
  <trip id="veh005_271" depart="35274" from="1207401650" to="1091984826#0" type="passenger"/>
  <trip id="veh005_272" depart="33939" from="50323222#1" to="-863774952#0" type="passenger"/>
  <trip id="veh005_273" depart="31112" from="-40784652#0" to="900390006#1" type="passenger"/>
  <trip id="veh005_274" depart="34528" from="237271809#3" to="40784659#0" type="passenger"/>
  <trip id="veh005_275" depart="30892" from="-40784652#0" to="40299122#2" type="passenger"/>
  <trip id="veh005_276" depart="31191" from="-72083131" to="610738424#0" type="passenger"/>
  <trip id="veh005_277" depart="30686" from="1363506394#4" to="159538498#1" type="passenger"/>
  <trip id="veh005_278" depart="34455" from="177743535#0" to="41866489#1" type="passenger"/>
  <trip id="veh005_279" depart="28875" from="446640439" to="173471112" type="passenger"/>
  <trip id="veh005_280" depart="32206" from="50323222#1" to="900390006#1" type="passenger"/>
  <trip id="veh005_281" depart="32520" from="-33683398#2" to="177743535#0" type="passenger"/>
  <trip id="veh005_282" depart="29477" from="1207401650" to="40784659#0" type="passenger"/>
  <trip id="veh005_283" depart="30333" from="159942190" to="68868377" type="passenger"/>
  <trip id="veh005_284" depart="32504" from="-1092108194" to="68868377" type="passenger"/>
  <trip id="veh005_285" depart="29017" from="998773447#1" to="1326094907#0" type="passenger"/>
  <trip id="veh005_286" depart="32777" from="240007894#1" to="1207401650" type="passenger"/>
  <trip id="veh005_287" depart="30098" from="40784659#1" to="1363506394#4" type="passenger"/>
  <trip id="veh005_288" depart="30752" from="240007894#1" to="-33683398#2" type="passenger"/>
  <trip id="veh005_289" depart="33365" from="900390006#1" to="-70662723#0" type="passenger"/>
  <trip id="veh005_290" depart="32966" from="1092600147#1" to="-40784652#0" type="passenger"/>
  <trip id="veh005_291" depart="30892" from="1020246871" to="900390006#1" type="passenger"/>
  <trip id="veh005_292" depart="30609" from="610738424#0" to="240034070#0" type="passenger"/>
  <trip id="veh005_293" depart="30651" from="-33683398#2" to="-1092108194" type="passenger"/>
  <trip id="veh005_294" depart="34444" from="136232037#0" to="240640942#1" type="passenger"/>
  <trip id="veh005_295" depart="32469" from="-33683398#2" to="177743535#0" type="passenger"/>
  <trip id="veh005_296" depart="29494" from="159942190" to="10632130" type="passenger"/>
  <trip id="veh005_297" depart="34094" from="610738424#0" to="998773447#1" type="passenger"/>
  <trip id="veh005_298" depart="31450" from="1119184635#1" to="24446738#3" type="passenger"/>
  <trip id="veh005_299" depart="30931" from="1092600147#1" to="1326094907#0" type="passenger"/>
  <trip id="veh005_300" depart="29942" from="47386145" to="900390006#1" type="passenger"/>
  <trip id="veh005_301" depart="30309" from="-33683398#2" to="50843200#1" type="passenger"/>
  <trip id="veh005_302" depart="32970" from="-47279971" to="-40784652#0" type="passenger"/>
  <trip id="veh005_303" depart="34098" from="44472940#0" to="177743535#0" type="passenger"/>
  <trip id="veh005_304" depart="29641" from="-47279971" to="-72083131" type="passenger"/>
  <trip id="veh005_305" depart="30319" from="431876176" to="1020246871" type="passenger"/>
  <trip id="veh005_306" depart="31244" from="-1273359359#1" to="900390006#1" type="passenger"/>
  <trip id="veh005_307" depart="32854" from="44472940#1" to="-33683398#2" type="passenger"/>
  <trip id="veh005_308" depart="35120" from="50323222#1" to="159942190" type="passenger"/>
  <trip id="veh005_309" depart="34630" from="24446738#3" to="240640942#1" type="passenger"/>
  <trip id="veh005_310" depart="31359" from="998773447#1" to="-1092108194" type="passenger"/>
  <trip id="veh005_311" depart="32522" from="-1092108194" to="-33683398#2" type="passenger"/>
  <trip id="veh005_312" depart="30344" from="-47279971" to="-70662723#0" type="passenger"/>
  <trip id="veh005_313" depart="30227" from="-33683398#2" to="173471112" type="passenger"/>
  <trip id="veh005_314" depart="30345" from="1064799814" to="-49073765#0" type="passenger"/>
  <trip id="veh005_315" depart="30826" from="1207401650" to="1064853456" type="passenger"/>
  <trip id="veh005_316" depart="35243" from="68868377" to="44472940#0" type="passenger"/>
  <trip id="veh005_317" depart="29211" from="1092600147#1" to="44472940#0" type="passenger"/>
  <trip id="veh005_318" depart="34169" from="1085107695" to="-72083131" type="passenger"/>
  <trip id="veh005_319" depart="29560" from="610738423#1" to="1064799814" type="passenger"/>
  <trip id="veh005_320" depart="33392" from="610738423#1" to="900386124#0" type="passenger"/>
  <trip id="veh005_321" depart="31307" from="43763701#3" to="177743535#0" type="passenger"/>
  <trip id="veh005_322" depart="30267" from="1068434254#0" to="40784659#1" type="passenger"/>
  <trip id="veh005_323" depart="32569" from="44472940#0" to="610738423#1" type="passenger"/>
  <trip id="veh005_324" depart="29224" from="1324706272" to="-72083131" type="passenger"/>