<?xml version="1.0" encoding="UTF-8"?>

<!-- generated on 2025-08-09 18:26:30.565153 by randomTrips.py v1_24_0+0000-b72eb3fabc8
<configuration>
    <net-file value="D:/pro_and_data/SCM_DeepONet/shanghai_center.net.xml"/>
    <route-file value="D:/pro_and_data/SCM_DeepONet/random.rou.xml"/>
    <period value="2.0"/>
</configuration>
-->

<!-- generated on 2025-08-09 18:26:26 by Eclipse SUMO duarouter Version 1.24.0
<duarouterConfiguration xmlns:xsi="http://www.w3.org/2001/XMLSchema-instance" xsi:noNamespaceSchemaLocation="http://sumo.dlr.de/xsd/duarouterConfiguration.xsd">

    <input>
        <net-file value="D:/pro_and_data/SCM_DeepONet/shanghai_center.net.xml"/>
        <route-files value="trips.trips.xml"/>
    </input>

    <output>
        <output-file value="D:/pro_and_data/SCM_DeepONet/random.rou.xml"/>
        <alternatives-output value="NUL"/>
    </output>

    <time>
        <begin value="0.0"/>
        <end value="3600.0"/>
    </time>

    <report>
        <no-warnings value="true"/>
        <ignore-errors value="true"/>
        <no-step-log value="true"/>
    </report>

</duarouterConfiguration>
-->

<routes xmlns:xsi="http://www.w3.org/2001/XMLSchema-instance" xsi:noNamespaceSchemaLocation="http://sumo.dlr.de/xsd/routes_file.xsd">
    <vehicle id="0" depart="0.00">
        <route edges="177597189 -177592890#4 -177592890#3 -35422928#0 -35422929 24475931#0 24475931#1 1084696954 144965240#0 177574806#0 -469632301 -144968539 -27498117 -144960887 1091862741 11620131#0 1298040464 1298040482 1068447135#0 1068447135#1 448931481#0 448931481#1 1298040469 448931482#0 1201643770#0 1201643770#1 1201643770#2 160151207 1327579127 478271873#0 478271873#1 478271873#2 478271873#3 1100626101 1100626100 178583696#0 178583696#1 19997100 1327579141 15419971#0 15419971#1 15419971#2 1323097578 1292578228 -1235501863 -40297715#3 -40297715#2 -40297715#1 -40297715#0 -1335304385 -900279886 -1335304377 -10628444#1 -10628444#0 -1254816455 -1068916339 509646052 1292541108 968332509 1214520079 1068434235 1214520078 -1237953494 15420801#0 15420801#1 15420801#2 15420801#3 15420801#4 1068434221 1068434210 1068434213 1211488950 40298430 1211488949 1211488947 1068434228 1204845147 1204845154 1068434225 1204845140 1204845141 -1206661023 -1064398319 -1100831017 -147711046#1 -147711046#0 -1100831001 -1074771156 -1074771176 -1074771178"/>
    </vehicle>
    <vehicle id="1" depart="2.00">
        <route edges="-834569775 -321842505 -834569776 -321842503#0 -263440662 -321842502#1 -321842502#0 -159942201#0 -1271795991 169004585#0 169004585#1 135721886#0 135721886#1 135721886#2 1236534026 968332519#0 968332519#1 968332519#2 968332519#3 584372391 439447817 1332569683 1206661085 1206661084 57141994 1298040481 47402877 47402878#0 47402878#1 1337978663#0 1337978663#1 1220272643 48759143#0 48759143#1 48828432#0 -48828432#0 -48759143#1"/>
    </vehicle>
    <vehicle id="2" depart="4.00">
        <route edges="40040118#3 -1091984825#2 -1091984825#1 39750944#0 39750944#1 39750944#2 39750944#3 39750944#4 39750944#5 1085107733 10629715#0 10629715#1 1298040488 1223689727 1223689726 1223689725#0 1223689725#1 1085107696 1064398307#0 1064398307#1 178583695#0 178583695#1 46975377#0 46975377#1 46975377#2 46975377#3 1298040484 1064398290 1068447147 449718769 449718778#0 449718778#1 730661156#1 73897718 73897717 1064799812 48985076#0 48985076#1 48985076#2 982225957 78485050 1075724564#0 1075724564#1 1075724564#2 71293431 1075724555 1068400164 987438291#0 987438291#1 177730677 177714738 177714726 1068139764 1255166885#0 1255166885#1 71365261#0 71365261#1 71365261#2 71365261#3 1074542781 -989909255 -1078939191 -47281534 -1227641672 24446741#0 24446741#1"/>
    </vehicle>
    <vehicle id="3" depart="6.00">
        <route edges="53669861#1 71462584 71462587#0 71462587#1 71521599 177579660 71523153 71523148#3 71523148#4 168993866 168993867#0 168993867#1 1068447146 35422924#0 39688890#1 39688890#2 39688890#4 176150339 145007019 49219232 145007016 49219225 964451989 83429676 964451988 164957797 164957808 964451987#1 1108464058 1192341088 958766048#0 164957790#1 164957790#2 164957790#3 1152808617 1292578235#0 1292578235#1 10670773#0 -1324096343"/>
    </vehicle>
    <vehicle id="4" depart="8.00">
        <route edges="1153936294 47281535 50775228 69156910#0 69156910#1 1337174721#0 1337174721#1 1329415591 1068139740 982225959 1064799804 986834714#0 986834714#1 986834714#2 -989909255 -1078939191 -47281534 -1227641672 -1080217654#1 -1080217654#0"/>
    </vehicle>
    <vehicle id="5" depart="10.00">
        <route edges="-47280145 1324039626#1 -1262057002 -1324096351 -10639453 -1192417712 1192417713 1202688177 1202688176#0 1262057009#1"/>
    </vehicle>
    <vehicle id="6" depart="12.00">
        <route edges="-1075724583 -1075724582#2 -1075724582#1 -1075724582#0 -987437452#3 -987437452#2 -987437452#1 -987437452#0 -1068139766 -1068139767 -177594558 -177594560 -24474697 -150943904#1 -150943904#0 -730661158 -1064398286 -730661155#4 -730661155#3 -730661155#2 -730661155#1 -730661155#0 -1064804956#1 -1064804956#0 -484298629#4 -484298629#3 -484298629#2 -484298629#1 -484298629#0 -24474520 -85796878 -85796873 -1247547933#1 -1247547933#0 -450616345#2 -450616345#1 1125986380 1125986388 1068434195 1068434196#0 1068434196#1 1211151639 521704036 1068434168 1068434199 1068434200#0 1068434200#1 521704042#0 521704042#1 1125986387 1214520075 509524270 40322293 1214520070 1068434236 509646055 509646144 1068434235 1214520078 -1237953494 15420801#0 15420801#1 15420801#2 15420801#3 15420801#4 1068434221 1068434210 1068434213 1211488950 40298430 1211488949 1211488947 1068434228 1204845147 1204845154 1068434225 1204845140 1204845141 -1206661023 -1064398319 44477353#0 238219470 72083061#1 -422825800#1 -422825800#0"/>
    </vehicle>
    <vehicle id="7" depart="14.00">
        <route edges="178441747#5 -39705367#0 478271873#1 478271873#2 478271873#3 1100626101 1100626100 178583696#0 178583696#1 19997100 1327579141 1273405489 1123874585 71310758 71310760 49224800 178492984 178492989 1292578238 71316462 1123874583 872834745#0 872834745#2 666886091#0 666886091#1 666886091#2 1262056993 1217052986 10632127 1262056995#0 1262056995#1 1324039626#0 1324039626#1"/>
    </vehicle>
    <vehicle id="8" depart="16.00">
        <route edges="-474143552#1 -474143552#0 -1323097580#1 -1323097580#0 -1327579142#2 -1327579142#1 -1327579142#0 1064398307#1 1085107743 478271876#0 478271876#1 1255099063#0 1255099063#1 478271879#0 478271879#1 1327579144 478271874 40301368#0 40301368#1 40301368#3 40301368#4 40301368#5 40301368#6 40301368#7 40301368#8 1298040465 1298040466#1 1298040472 144960887 27498117 144968539 469632301 -177574806#0 1327265169#0 1327265169#1 71523148#0 71523148#1 71523148#3 71523148#4 168993866 168993867#0 168993867#1 1068447146 35422924#0 35422924#1 145007013#2"/>
    </vehicle>
    <vehicle id="9" depart="18.00">
        <route edges="47283898 1235501858#0 1235501858#1 1085107738 10629715#0 10629715#1 1298040488 1223689727 1223689726 1223689725#0 1223689725#1 1085107696 1273405488 15419971#0 15419971#1 15419971#2 1323097578 1292578228 -1235501863 -40297715#3 -40297715#2 -40297715#1 -40297715#0 -1335304385 -900279886 -1335304377 -10628444#1 -10628444#0 -1254816455 -1068916339 -1125986377#1 -10628442#0"/>
    </vehicle>
    <vehicle id="10" depart="20.00">
        <route edges="47280264 870436411#2 870436410 1271702659 1292578235#0 1292578235#1 1290456020#0 1290456020#1 1290439822#0 1290439822#1 1290439822#2 1290439822#4 666886087#0 666886087#1 666886087#2 666886087#4 1255166892 166332795#0 166332795#1 1298040494 49219226 145007021 49219227 145007018 1298040491 -177714731#1 53672154#2 53672154#4 53672154#5 53672154#6 53672154#7 53672154#8 168993864 53672179 1067804363#0 1067804363#2 1067804363#3 1067804363#4 168993859#0 168993859#1 177574806#0 -469632301 -144968539 -27498117 -144960887 1091862741 11620131#0 -226657313#2 -226657313#1 -226657313#0 -730661158 -1064398286 -730661155#4 -730661155#3 -730661155#2 -730661155#1 -730661155#0 -1064804956#1 -1064804956#0 -484298629#4 -484298629#3 -484298629#2 -484298629#1 -484298629#0 -24474520 -85796871 -1273359373 -85796885 -1273359372#1 -1273359372#0 -50372113#4 -50372113#3 -50372113#2 39223967#0"/>
    </vehicle>
    <vehicle id="11" depart="22.00">
        <route edges="1068447135#0 1068447135#1 448931481#0 448931481#1 448931479#1 24576919 1064853451 1068447147 449718769 449718778#0 449718778#1 730661156#1 73897718 73897717 1064799812 47405752#0 47405752#1 47405752#2 39959318#0 39959318#1 39959318#2 39959351#0 39959351#1 666923272#0 666923272#1 666923272#2 1231065640 813852670#1 813852670#2 -30620685#1"/>
    </vehicle>
    <vehicle id="12" depart="24.00">
        <route edges="804161124 -804161124 -804161125 -1091984804 -1091984805 -1125986404 1125986407#0 1125986407#1 1091862745#0 1091862745#1 49228821#0 49228821#1 1332905214#0 1332905214#1 1332905214#2 1273359361 1074409233#0 1074409233#1 1091862743#0 1091862743#1 49228828 49228665 1329667735 1077697576#0 1077697576#1 49228634 44031964#1 804884194 1231065656 813852674 813852675 813852676 813852673 1068434237 1068434255"/>
    </vehicle>
    <vehicle id="13" depart="26.00">
        <route edges="-1332638368#0 -14924729#2 -14924729#1 -14924729#0 -1332638391#1 -1332638391#0 -1068434202 -1214520079 -968332509 -1292541108 -509646052 1068916339 1254816455 10628444#0 10628444#1 1335304377 900279886 1335304385 40297715#0 40297715#1 40297715#2 40297715#3 1235501863 1324405519 49224804#0 49224804#1 49224804#2 1123874585 71310758 71310760 49224800 178492984 178492989 1298040500 71316469 71316443 1292578237 40784418 167052883#0 167052883#1 1123874586#0 1123874586#1 1123874586#2 10689621 1217052985#0 1217052985#1 1192417713 1202688177 1202688178 967998528#0 967998528#1 1217052990 1217052994 1217052992 10360980#0 10360980#1 1223691444 -1262057042 -967998586#4 -967998586#3 135765845#0 -135765854"/>
    </vehicle>
    <vehicle id="14" depart="28.00">
        <route edges="495101830 694630310 702173484#0 702173484#1 33683439#2 446275072 1298335710 421846085#0 421846085#1 421846085#2 1085107731#0 71310752 1273405488 1273405489 1123874585 71310758 71310760 49224800 178492984 178492989 1292578238 71316462 1123874583 872834745#0 872834745#2 8793027 1192417719 10639447 47313767 47313770 1324096359 10639448#0 10639448#1 1292568600 14909570 135721890 1271499761 135721886#0 135721886#1 135721886#2 967985517#0 967985517#1 -12470326#5 -12470326#4 159787865#0 159787866#1"/>
    </vehicle>
    <vehicle id="15" depart="30.00">
        <route edges="47281532#2 47281532#3 47281532#4 974204304#0 974204304#1 974204304#2 974204304#3 177573607 177573606 53746363 987437455 175621777 1085064643 1085064642 1255166888#0 1255166888#1 -1075724565#2 -1075724565#1 -1075724565#0 -987437452#3 -987437452#2 -987437452#1 39959696#0"/>
    </vehicle>
    <vehicle id="16" depart="32.00">
        <route edges="1298040491 1298040492#0 1298040492#1 1064799809 986834729 986834730 -989909255 -1078939191 -47281534 -1227641672 -1080217654#1 1363573469#1 1356153800#0 1363573465#0 1363573465#1 1363573466#0 1363573466#1 900386124#0 900386124#1 900386119#0"/>
    </vehicle>
    <vehicle id="17" depart="34.00">
        <route edges="1085107695 12247572 654297626#0 654297626#1 1068890123#1 1068890122#0 1068890122#1 12103210 1231065638 50372114#0 50372114#1 1124366639#0 1124366639#1 654297624 1077708637 654409982 51177336 40322954 40322963 1332905213 51177332 39659506 1242851129 1241643111 1242851131 1327579124"/>
    </vehicle>
    <vehicle id="18" depart="36.00">
        <route edges="48835982#4 654297640#0 654297640#1 654297640#2 1211488953 266066442 1068434223 1068434222#0 1068434222#1 1260481152#0 1260481152#1 1207401652#0 1207401652#1 822782498 856175962 826496637 1222181937 1068434204 511187823 1068434258 1214520072 511187811 1125986369 1068434257 1068434203 40297885#0 40297885#1 40297885#2 654297628 1068434256 521701858 1211151640 654297618#0 654297618#1 1214520063 1231065642 12107082#0 12107082#1 12107082#2 813852672 1231065641 666923274 666923275#0 1231065640 730932883 1414478165 174737570#1"/>
    </vehicle>
    <vehicle id="19" depart="38.00">
        <route edges="50590323#0 1124326523 39674883#0 39674883#1 -176026558 24474689#0 24474689#1 24474689#2 1069126200 40140449 1349162856 1005002202#0 40140422#0 1365669819"/>
    </vehicle>
    <vehicle id="20" depart="40.00">
        <route edges="39688890#6 1255166885#1 71365261#0 1255166891 1255166890 176150324#0 176150324#1 176150325 558885222#0 558885222#1 558885222#2 558885222#3 -145007026 -175978283 -175971816#2 -175971816#1 -175971816#0 -50590325#1 -50590325#0 -1005002194#1 50590323#2 136232040 136232027 1074542795 -39658122#3 -39658122#2 -39658122#1 -39658122#0 -1225879472#1 -1225879472#0 967135080#0 -1125986409#3 -1125986409#2"/>
    </vehicle>
    <vehicle id="21" depart="42.00">
        <route edges="-48828455#1 48828455#1 428898916#2 428898916#3 1220272651#0 1298040478#1 1337978662 593755862#0 593755862#1 446640438 446640437#0 446640437#1 446640437#2 1213091924#0 1213091924#1 1155731233#0 1155731233#1 1155731223 1155731230 1155731231 1155731222 10260585 1202688183 1192417728 -1202688180 -1298040461 -168899776 1123874578 71316465 49224795 178493001 178492993 1123874577 71310798 1292578228 -1235501863 -40297715#3 -40297715#2 -40297715#1 -40297715#0 -1335304385 -900279886 -1335304377 -10628444#1 -10628444#0 -1254816455 -1068916339 509646052 1292541108 968332509 826496637 1222181937 1068434204 511187823 1068434258 1214520072 511187811 511404874 515123442#0 515123442#1 515123442#2 666886081 515126385#0 515126385#1 515126385#2 515126302 1226645408 1226645409 515136609 1226645412 1100626097 515138054#0 515138054#1 515142565 515142560 515150975 515223445 478286981 227962892 769230225 1330340325 656471270 44032510#0 44032510#1 8884713 1005301535"/>
    </vehicle>
    <vehicle id="22" depart="44.00">
        <route edges="-1273405484 1273405484 1101656564 769245727 769245725 1202332869#0 1202332869#1 1202332869#2 769245740#0 769245740#1 1202332867 1337115427 769245741 1074560220 1074560217 52205569 1327579125 52205574 1214520060 1119387530 1068486055 1214520052 1254816432 1068486125 1068486126 1214520058 1131988441 967135082#0 -1125986409#4 -1125986409#3 -1125986409#2 -1125986409#1 -1125986409#0 -501058155#1 -501058155#0"/>
    </vehicle>
    <vehicle id="23" depart="46.00">
        <route edges="-1379331368 -1365669819 40140422#2 136752695#2 1074542798#0 1074542798#1 1074542798#2 1074542798#3 974204304#0 974204304#1 974204304#2 974204304#3 177573607 177573606 53746363 987437455 175621777 1085064643 78485054 1075724556 47405758#0 47405758#1 24475931#0 24475931#1 1084696954 144965240#0 177574806#0 -469632301 -144968539 -27498117 -144960887 1091862741 11620131#0 1298040464 1298040482 1068447135#0 1068447135#1 448931481#0 448931481#1 1298040469 448931482#0 1201643770#0 1201643770#1 1201643770#2 160151207 1327579127 478271873#0 478271873#1 478271873#2 478271873#3 1100626101 1100626100 178583696#0 178583696#1 19997100 1327579141 15419971#0 15419971#1 15419971#2 1323097578 1292578228 -1235501863 -40297715#3 -40297715#2 -40297715#1 -40297715#0 1324405511 1335304375 1335304374 475044040#0 475044040#1 475044040#2 475044040#3 1272337501 1064476622 968332513 1260481150 490474064#0 490474064#1 968332515#0 968332515#1 968332515#2 1119184635#0 1119184635#1 1119184635#2 488788634#0 488788634#1 488788634#2 1067822081 48938524 475502218#0 475502218#1 475502218#2 1273314019 1150102610 -900279877"/>
    </vehicle>
    <vehicle id="24" depart="48.00">
        <route edges="177573609#0 177573609#1 -145007026 -175978283 -175971816#2 -175971816#1 -175971816#0 -50590325#1 -50590325#0 -1005002194#1 50590323#2 136232040 136232027 136232042#0 1075505406#0 1075505406#1 1075505406#2 1075505406#3 1075505402#0 1075505402#1 1064757421 1075505403"/>
    </vehicle>
    <vehicle id="25" depart="50.00">
        <route edges="1076605835 50372094#0 50372094#1 50372094#2 240666074#2 1064816197#2 900390007 900390003 1330117294 900390009 1322066956 39659484 12103213#0 12103213#1 1068890120#0 1068890120#1 1068890120#2 1125986390 83563459 1125986381#0 1125986381#1 1125986389 1125986380 1125986388 1068434195 1068434196#0 1068434196#1 -12247569 -1214520068 -564273553 -654297629#1 -654297629#0 -1074409256 -24576913#1 -24576913#0 -449565665#2 -449565665#1"/>
    </vehicle>
    <vehicle id="26" depart="52.00">
        <route edges="-71756390 -24446738#1 -24446738#0 47281534 1078939191 989909255 1074542799 177741564#0 177741564#1 177741564#2 177741564#3 1255166884 177714722#0 177714722#1 177714722#2 177714722#3 177714722#4 53672154#4 53672154#5 53672154#6 53672154#7 53672154#8 168993864 53672179 1067804363#0 1067804363#2 1067804363#3 1067804363#4 168993859#0 168993859#1 177574806#0 -469632301 -144968539 -27498117 -144960887 1091862741 11620131#0 1298040464 1298040482 1068447135#0 1068447135#1 448931481#0 448931481#1 1298040469 448931482#0 1201643770#0 1201643770#1 1201643770#2 160151207 1327579127 478271873#0 478271873#1 478271873#2 478271873#3 1100626101 1100626100 178583696#0 178583696#1 19997100 1327579141 15419971#0 15419971#1 15419971#2 1323097578 1292578228 -1235501863 -40297715#3 -40297715#2 -40297715#1 -40297715#0 -1335304385 -900279886 -1335304377 -10628444#1 -10628444#0 -1254816455 -1068916339 509646052 1292541108 968332509 1214520079 1068434235 1214520078 -1237953494 15420801#0 15420801#1 15420801#2 15420801#3 15420801#4 1068434221 1068434210 1068434213 1211488950 40298430 1211488949 1211488947 1068434228 1204845147 1204845154 1068434225 1204845140 1204845141 -1206661023 -1064398319 -1100831017 72083056#0 72083056#1 72083061#0"/>
    </vehicle>
    <vehicle id="27" depart="54.00">
        <route edges="177768112#3 177768112#4 -177768112#4 -177768112#3 -177768112#2 1074542777#1 1074542776#0 1074542776#1 50775229 477993576 477993575 10632119 47281536 1325293228 1256479011 237271814 -1324096351 -10639453 1292578240 1192417724#0 1192417724#1 1192417724#2 666886090 967985514 1232943988 1262056991#0 1262056991#1 -872834745#2 -872834745#0 40784677 1292578237 40784418 167052883#0 166602809#0 166602809#1 166602809#2"/>
    </vehicle>
    <vehicle id="28" depart="56.00">
        <route edges="-39697701#1 -39697701#0 40040114#1 -1234889326 33683439#0 33683439#1 33683439#2 446275072 1298335710 421846085#0 421846085#1 421846085#2 1085107731#0 71310752 1273405488 15419971#0 15419971#1 15419971#2 1323097578 1292578228 -1235501863 -40297715#3 -40297715#2 -40297715#1 -40297715#0 39921192 488788626#0 488788626#1 178699054 1074409255#0 1074409255#1 1074409255#2 1074409255#3 15670277#0 15670277#1 1074771169#0 1074771169#1 1064340570 39960670#0 39960670#1 39960670#2 39959340 1064340569#0 1064340569#1 1329667742#1 49228662#0 24447849#1 39959502"/>
    </vehicle>
    <vehicle id="29" depart="58.00">
        <route edges="-39658122#3 39658122#3 50843248 1329667756 1101656565 1091984801 1074409253#0 1074409253#1 1074409233#0 50843200#1 -166813139#1 -166813139#0 -51964971#0 51964861#1 51964862#0 51964969 1091862742#1"/>
    </vehicle>
    <vehicle id="30" depart="60.00">
        <route edges="9704194#4 9704194#5 44121335#1 1068434212 1068434211 1326437252#0 1068434222#1 1260481152#0 1260481152#1 1207401652#0 1207401652#1 822782498 856175962 -968332509 -1292541108 -509646052 1068916339 1254816455 10628444#0 10628444#1 1335304377 900279886 1335304385 40297715#0 40297715#1 40297715#2 40297715#3 1235501863 1324405519 49224804#0 49224804#1 49224804#2 1085107696 1064398307#0 1064398307#1 1085107743 478271876#0 478271876#1 1255099063#0 1255099063#1 478271879#0 478271879#1 1327579144 478271874 40301368#0 40301368#1 40301368#3 40301368#4 40301368#5 40301368#6 40301368#7 40301368#8 1298040465 1298040466#1 1298040472 144960887 27498117 144968539 469632301 -177574806#0 1327265169#0 1327265169#1 71523148#0 71523148#1 71523148#3 71523148#4 168993866 168993867#0 168993867#1 1068447146 35422924#0 35422924#1 145007013#2 145007013#4 -1298335706 177714722#0"/>
    </vehicle>
    <vehicle id="31" depart="62.00">
        <route edges="1329415582#0 -1329415582#0 -238219456#2 -238219456#1 -238219456#0 1254816451 1211488953 266066442 1068434223 1068434222#0 1068434222#1 1260481152#0 1260481152#1 1207401652#0 1207401652#1 822782498 856175962 826496637 1222181937 1068434204 511187823 1068434258 1214520072 511187811 1125986369 1068434257 1068434203 40297885#0 40297885#1 40297885#2 654297628 1068434256 521701858 1211151640 12247569 1211151638 1211151635 450616334#0 450616334#1 47267014#0 47267014#1 1068890124 1068890123#0 1068890123#1 1068890122#0 1068890122#1 12103210 1231065638 50372114#0 50372114#1 1124366639#0 1124366639#1 654297624 1077708637 1231065661 1272804330 1272804329 43782476 50372419 50372414 50372415 50372417 226894614#1 226894614#2 226894611#0 226894611#1 1192976335 247366753#1 1192976338 247366753#3"/>
    </vehicle>
    <vehicle id="32" depart="64.00">
        <route edges="49228662#0 24447849#1 24447849#2 24447849#3 24447849#4 24447849#5 24447849#6 982225957 78485050 1075724564#0 1075724564#1 1075724564#2 71293431 1075724555 1068400164 987438291#0 987438291#1 177730677 177714738 177714726 1068139764 1255166885#0 1255166885#1 1255166884 145007019 49219232 145007016 49219225 964451989 71316421 71316404 71316407 1192341082#0 1192341082#2 1192341082#3 164957801 961322852 47283776 1126659001 964420116 1298040460 12595547 -1202688183 -10260585 -1155731222 12606971 574887041 12081584 1292568600 14909570 135721890 1271499761 135721886#0 135721886#1 135721886#2 1236534026 439447789#0"/>
    </vehicle>
    <vehicle id="33" depart="66.00">
        <route edges="-488786523 1068144846#1 1068144846#2 985133427 515123439 47225638#3 1298335702 1337646276 12090453#0 12090453#1 488788636#0 488788636#1 413789557 47267014#0 47267014#1 1068890124 1068890123#0 654297626#2 654297625#0 654297625#1 654297625#2 1068434255 813852672 1231065641 666923274 666923275#0 40322445#0 40322445#1 1273359371 813852688 1337777290 813852690 51964855 686928337#0 686928337#1 686928337#2 1119184737#0 1119184737#1 1074481559 1214520046 1214520048 1074481440 1068486120 1202332871 1214520051 1068486121 1214520049 1214520050#0 1214520050#1 1214520050#2 1271083327#3 1271083327#4 1271083327#5 1125986404 1091984805 -1091984805"/>
    </vehicle>
    <vehicle id="34" depart="68.00">
        <route edges="1064757423 136232037#1 136232037#2 136232037#3 1329667753#0 1329667753#1 1101656567 1074542785 136232049 136232043#0 1005002194#1 50590325#0 50590325#1 175971816#0 175971816#1 175971816#2 175978283 145007026 177573609#3 177573609#4 1074542782#0 1074542782#1 1074542782#2 1080472037 974204303#0 974204303#1 136752703 987438289#0 -730914405"/>
    </vehicle>
    <vehicle id="35" depart="70.00">
        <route edges="-449197596#1 168577948#3 482569918#1 1326094886#0 654530820#1 83563455 437445539#0 437445539#1 437445539#2 437445539#3 1068890121 83563459 1125986381#0 1125986381#1 1125986389 450616345#1 450616345#2 1247547933#0 1247547933#1 85796873 85796878 24474520 484298629#0 484298629#1 484298629#2 484298629#3 484298629#4 1064804956#0 1064804956#1 730661157 73897135 73897035 73896952"/>
    </vehicle>
    <vehicle id="36" depart="72.00">
        <route edges="511404880#1 511404878 521704042#0 521704042#1 511404879 40297885#0 40297885#1 40297885#2 654297628 1068434256 521701858 1211151640 12247569 1211151638 1211151635 450616334#0 450616334#1 488788633#0 488788633#1 1067928307#0 1067928307#1 -437445542 -437445540 -1068434253 -484298632 -1064799814 -1068434252 -1076615064#1 -1076615064#0 -1119079290 -40786653 -1076615063#2 -1076615063#1 -1076615063#0 1322939164 -424580482 -1064799816 1064799816"/>
    </vehicle>
    <vehicle id="37" depart="74.00">
        <route edges="178583162#1 1297720371 1068447134 39839504 -1297720374 -47150988#2 -47150988#1 -47150988#0 1237953491 1074771165#0 46975399#0 46975399#1 46975399#2 178583696#0 178583696#1 19997100 1327579141 1273405489 1085107742 40036882 1332905238 1297720370 1223689722#0 1223689722#1 1085107737 10629716#0 10629716#1 10629716#2 10629716#3 39750941#0 39750941#1 39750941#2 39750941#3 39750941#4 39750941#5 39750941#6 47229047#1 47229047#2 47229047#3 1110457967 968332516#0 968332516#1 49225102 688370393 1091862752 775160498 422836523 954628960#1 1117841025#0"/>
    </vehicle>
    <vehicle id="38" depart="76.00">
        <route edges="655702612 655702611#0 1272480706#1 654530824#1 1074771178 1074771176 1074771156 1100831001 147711046#0 147711046#1 1100831017 1064398319 1206661023 1068434233 1211488940 1231065650 68585251#0 68585251#1 1211493170#0 1211493170#1 1207401653 1211488946"/>
    </vehicle>
    <vehicle id="39" depart="78.00">
        <route edges="-697101580#3 -697101580#2 -684705020 74014296#4 168577948#2 168577948#3 1067770293#1 1067770293#2 1067770309#0 1068447149 424580467#0 424580467#1 515142555 515142557 515227367#1 482569917#0 482569917#1 515136605 515136607 515130026#0 515130026#1 515130025 985133427 1337646270 515124965#1 967985512 478286980 40322293 1214520070 1068434236 509646055 509646144 -1214520079 -968332509 -1292541108 -509646052 1068916339 1254816455 10628444#0 10628444#1 1335304377 900279886 1335304385 1324405511 1335304375 1335304374 475044040#0 475044040#1 475044040#2 475044040#3 1272337501 1064476622 968332513 1260481150 490474064#0 490474064#1 968332515#0 968332515#1 968332515#2 1085107736#0 1085107736#1 1085107736#2 47229047#1 47229047#2 47229047#3 1110457967 968332516#0 968332516#1 580758950 -51292955#1"/>
    </vehicle>
    <vehicle id="40" depart="80.00">
        <route edges="1330568383 -1076615063#2 -1076615063#1 -1076615063#0 1326094900 1085107744#0 1085107744#1 50832813 50832814#0 50832814#1 769245718 1254633085 769245720#0 769245720#1 769245720#2 769245720#3 769245720#4 1231065655 12107042#0 12107042#1 44031963#0 44031963#1 44031963#2 1077697461#0 1077697461#1 1254633080 24447849#1 24447849#2 24447849#3 24447849#4 24447849#5 24447849#6 982225957 78485050 1075724564#0 1075724564#1 1075724564#2 -71293433#0 -71293439"/>
    </vehicle>
    <vehicle id="41" depart="82.00">
        <route edges="13909444#3 47087992#1 47087992#2 1068144848 1068144847 47087366#0 47225638#1 47225638#2 47225638#3 1298335702 1337646276 12090453#0 12090453#1 488788636#0 488788636#1 413789557 -450616334#1 -450616334#0 -1211151635 -1211151638 -12247569 -1214520068 -564273553 564273552#0 564273552#1 564273561 564273558"/>
    </vehicle>
    <vehicle id="42" depart="84.00">
        <route edges="1118948860 1298040474#0 1298040474#1 1329527619 1254633089#0 1254633089#1 1254633089#2 1254633089#3 604428856#0 604428856#1 1298040467#0 1298040467#1 1298040467#2 40301235 -57246638 -1234889334 -1068400154 1298335710 421846085#0 421846085#1 421846085#2 1085107731#0 71310752 1273405488 15419971#0 15419971#1 15419971#2 1323097578 1292578228 -1235501863 -40297715#3 -40297715#2 -40297715#1 -40297715#0 -1335304385 -900279886 -1335304377 -10628444#1 -10628444#0 -1254816455 -1068916339 509646052 1292541108 968332509 1214520079 1068434202 1332638391#0 1332638391#1 14924729#0 14924729#1 14924729#2 1332638368#0 1068144845#1 1322916760 1068916333 863774952#0 863774952#1 1074383313 1074383314 1068144850#0 1068144850#1 1068144850#2 438516308#0 438516308#1 -47451506#4"/>
    </vehicle>
    <vehicle id="43" depart="86.00">
        <route edges="987438289#1 900386119#0 900386119#1 1363573468 1363573467#0 1363573467#1 1356153801#1 1080217654#1 1227641672 47281534 1078939191 989909255 986834732#0 986834732#1 986834732#2 1064799805 1068139753#0 1068139753#1 1074542777#0 1074542777#1 1074542776#0 1074542776#1 50775229 477993576 477993575 10632119 47281536 1325293228 1256479010 1292578234 10670771#0 10670771#1 10670771#2 1262057017 1217052995 1217053002 1217052994 1217052992 10360980#0 10360980#1 1223691444 1223691441#0 -12618613#7 1262057043#1 1262057043#2"/>
    </vehicle>
    <vehicle id="44" depart="88.00">
        <route edges="-1329667743#0 -41866232#1 1077697458 1077697577 50323382#4 50323382#5 47157276 1064340565#0 1064340565#1 47157274#0 47157274#1 47157274#2 1297720375 483897834#0 483897834#1 1074771163 1272548721 1074409232 1067852461 47157282 1237953497 1324405511 1335304375 1335304374 475044040#0 475044040#1 475044040#2 475044040#3 1272337501 1064476622 968332513 1260481150 490474064#0 490474064#1 968332515#0 968332515#1 968332515#2 1119184635#0 1119184635#1 1119184635#2 488788634#0 488788634#1 488788634#2 1067822081 48938524 475502218#0 475502218#1 475502218#2 1273314019 1150102611 -1150102611"/>
    </vehicle>
    <vehicle id="45" depart="90.00">
        <route edges="-15670282#0 39960670#1 39960670#2 39959340 1064340569#0 1064340569#1 1329667742#1 49228662#0 24447849#1 24447849#2 24447849#3 24447849#4 24447849#5 24447849#6 982225957 78485050 1075724581 1091862750#0 1091862750#1 1091862750#2 1298335701 175957481 175971818#1 175978281 175985055"/>
    </vehicle>
    <vehicle id="46" depart="92.00">
        <route edges="460316443#2 1247547933#1 85796873 85796878 24474520 484298629#0 484298629#1 484298629#2 484298629#3 484298629#4 1064804956#0 1064804956#1 730661155#0 730661155#1 730661155#2 730661155#3 730661155#4 1064398286 730661158 226657313#0 226657313#1 226657313#2 1298040464 1298040482 1068447135#0 1068447135#1 448931481#0 448931481#1 1298040469 448931482#0 1201643770#0 1201643770#1 1201643770#2 1298335699 1323097582 178487031#0 178487031#1 1237953489 177925124#0 177925124#1 1298040468 11622557#0 11622557#1 11622557#2 11622557#3"/>
    </vehicle>
    <vehicle id="47" depart="94.00">