<trips>
  <trip id="veh004_0" depart="30021" from="145007016" to="68868377" type="passenger"/>
  <trip id="veh004_1" depart="30398" from="446640439" to="1192417710" type="passenger"/>
  <trip id="veh004_2" depart="31773" from="47386145" to="446640439" type="passenger"/>
  <trip id="veh004_3" depart="27822" from="136232037#0" to="50843198#3" type="passenger"/>
  <trip id="veh004_4" depart="25452" from="50323222#1" to="50325553" type="passenger"/>
  <trip id="veh004_5" depart="29523" from="240640942#1" to="177743535#0" type="passenger"/>
  <trip id="veh004_6" depart="31446" from="610738424#0" to="159942190" type="passenger"/>
  <trip id="veh004_7" depart="29121" from="1326094907#0" to="24465651#1" type="passenger"/>
  <trip id="veh004_8" depart="32004" from="137220971" to="43763701#3" type="passenger"/>
  <trip id="veh004_9" depart="29659" from="240640943#1" to="-33683398#2" type="passenger"/>
  <trip id="veh004_10" depart="27957" from="1091984826#0" to="72233381" type="passenger"/>
  <trip id="veh004_11" depart="27453" from="47386145" to="237271809#2" type="passenger"/>
  <trip id="veh004_12" depart="32381" from="1363506394#4" to="-232359138" type="passenger"/>
  <trip id="veh004_13" depart="32342" from="50843198#3" to="610738424#0" type="passenger"/>
  <trip id="veh004_14" depart="28121" from="44121335#0" to="-70662727#0" type="passenger"/>
  <trip id="veh004_15" depart="26140" from="-768805831#1" to="-226907342#1" type="passenger"/>
  <trip id="veh004_16" depart="31070" from="446640439" to="240007894#1" type="passenger"/>
  <trip id="veh004_17" depart="25729" from="159942190" to="-238219473" type="passenger"/>
  <trip id="veh004_18" depart="28221" from="-33683398#2" to="-47279971" type="passenger"/>
  <trip id="veh004_19" depart="31354" from="47386111#1" to="1064853456" type="passenger"/>
  <trip id="veh004_20" depart="32017" from="10629709#0" to="50323222#1" type="passenger"/>
  <trip id="veh004_21" depart="25739" from="44472940#0" to="998773447#1" type="passenger"/>
  <trip id="veh004_22" depart="27962" from="68868377" to="-33683398#2" type="passenger"/>
  <trip id="veh004_23" depart="31064" from="44472940#0" to="175637233#0" type="passenger"/>
  <trip id="veh004_24" depart="28510" from="1192417710" to="10632130" type="passenger"/>
  <trip id="veh004_25" depart="25389" from="446640439" to="-769600704" type="passenger"/>
  <trip id="veh004_26" depart="26818" from="47386145" to="159942190" type="passenger"/>
  <trip id="veh004_27" depart="25902" from="-768805831#1" to="1064853456" type="passenger"/>
  <trip id="veh004_28" depart="26657" from="240640943#1" to="1119184638#0" type="passenger"/>
  <trip id="veh004_29" depart="31594" from="240640942#1" to="-70662727#0" type="passenger"/>
  <trip id="veh004_30" depart="30620" from="-40784652#0" to="900390006#1" type="passenger"/>
  <trip id="veh004_31" depart="26420" from="43763701#3" to="159942190" type="passenger"/>
  <trip id="veh004_32" depart="28311" from="237271809#2" to="10629709#0" type="passenger"/>
  <trip id="veh004_33" depart="25632" from="240640942#1" to="50843196#0" type="passenger"/>
  <trip id="veh004_34" depart="31968" from="47267014#1" to="240640942#1" type="passenger"/>
  <trip id="veh004_35" depart="31138" from="-70662723#0" to="1119184635#1" type="passenger"/>
  <trip id="veh004_36" depart="27780" from="40784659#1" to="47386145" type="passenger"/>
  <trip id="veh004_37" depart="28388" from="50325553" to="-1092108194" type="passenger"/>
  <trip id="veh004_38" depart="25583" from="47386145" to="610738423#1" type="passenger"/>
  <trip id="veh004_39" depart="27889" from="-1092108194" to="177743535#0" type="passenger"/>
  <trip id="veh004_40" depart="32245" from="177743535#0" to="240007894#1" type="passenger"/>
  <trip id="veh004_41" depart="25664" from="10629709#0" to="900390006#1" type="passenger"/>
  <trip id="veh004_42" depart="29501" from="-72083131" to="-33683398#2" type="passenger"/>
  <trip id="veh004_43" depart="31439" from="-863774952#0" to="50325553" type="passenger"/>
  <trip id="veh004_44" depart="29687" from="610738424#0" to="50323222#1" type="passenger"/>
  <trip id="veh004_45" depart="32148" from="24465651#1" to="177743535#0" type="passenger"/>
  <trip id="veh004_46" depart="31855" from="40784659#0" to="240640942#1" type="passenger"/>
  <trip id="veh004_47" depart="25331" from="593755854" to="159942190" type="passenger"/>
  <trip id="veh004_48" depart="30732" from="1064853456" to="610738423#1" type="passenger"/>
  <trip id="veh004_49" depart="31239" from="175637233#0" to="1119184635#1" type="passenger"/>
  <trip id="veh004_50" depart="30181" from="50323222#1" to="68868377" type="passenger"/>
  <trip id="veh004_51" depart="30159" from="39659484" to="998773447#1" type="passenger"/>
  <trip id="veh004_52" depart="28550" from="1064853456" to="1119184635#1" type="passenger"/>
  <trip id="veh004_53" depart="27996" from="1119184635#1" to="1085107695" type="passenger"/>
  <trip id="veh004_54" depart="27290" from="1091984826#0" to="159942190" type="passenger"/>
  <trip id="veh004_55" depart="26174" from="-70662727#0" to="1363506394#4" type="passenger"/>
  <trip id="veh004_56" depart="31474" from="159538498#1" to="1068434254#0" type="passenger"/>
  <trip id="veh004_57" depart="30043" from="610738423#1" to="240007894#1" type="passenger"/>
  <trip id="veh004_58" depart="30723" from="-33683398#2" to="593755854" type="passenger"/>
  <trip id="veh004_59" depart="29093" from="24465651#1" to="-863774952#0" type="passenger"/>
  <trip id="veh004_60" depart="30306" from="998773447#1" to="-232359138" type="passenger"/>
  <trip id="veh004_61" depart="30559" from="177743535#0" to="760475718" type="passenger"/>
  <trip id="veh004_62" depart="28744" from="12088974#3" to="24465651#1" type="passenger"/>
  <trip id="veh004_63" depart="31714" from="159538498#1" to="159942190" type="passenger"/>
  <trip id="veh004_64" depart="26472" from="-1273359359#1" to="-1092108194" type="passenger"/>
  <trip id="veh004_65" depart="31658" from="240640942#1" to="-10738871#0" type="passenger"/>
  <trip id="veh004_66" depart="30106" from="12088974#3" to="610738424#0" type="passenger"/>
  <trip id="veh004_67" depart="30266" from="40784659#1" to="50843198#3" type="passenger"/>
  <trip id="veh004_68" depart="25525" from="610738424#0" to="10632130" type="passenger"/>
  <trip id="veh004_69" depart="27484" from="240640942#1" to="446640439" type="passenger"/>
  <trip id="veh004_70" depart="28724" from="1064853456" to="431876176" type="passenger"/>
  <trip id="veh004_71" depart="26414" from="237271809#2" to="-240666072#0" type="passenger"/>
  <trip id="veh004_72" depart="27781" from="1085107695" to="610738423#1" type="passenger"/>
  <trip id="veh004_73" depart="28063" from="610738424#0" to="-226907342#1" type="passenger"/>
  <trip id="veh004_74" depart="30822" from="50323222#1" to="-769600704" type="passenger"/>
  <trip id="veh004_75" depart="29069" from="-768805831#1" to="159942190" type="passenger"/>
  <trip id="veh004_76" depart="25917" from="50323222#1" to="1363506394#4" type="passenger"/>
  <trip id="veh004_77" depart="28903" from="240640942#1" to="1326094907#0" type="passenger"/>
  <trip id="veh004_78" depart="31442" from="1068434254#0" to="1363506394#4" type="passenger"/>
  <trip id="veh004_79" depart="32358" from="40784659#1" to="1363506394#4" type="passenger"/>
  <trip id="veh004_80" depart="31535" from="-226907342#1" to="10632130" type="passenger"/>
  <trip id="veh004_81" depart="27897" from="137220971" to="175637233#0" type="passenger"/>
  <trip id="veh004_82" depart="32041" from="40140141#0" to="159538498#1" type="passenger"/>
  <trip id="veh004_83" depart="27558" from="446640439" to="47386145" type="passenger"/>
  <trip id="veh004_84" depart="27860" from="68868377" to="1092600147#1" type="passenger"/>
  <trip id="veh004_85" depart="27882" from="10632130" to="240034070#0" type="passenger"/>
  <trip id="veh004_86" depart="28655" from="50323222#1" to="240640943#1" type="passenger"/>
  <trip id="veh004_87" depart="32211" from="1363506394#4" to="50843200#1" type="passenger"/>
  <trip id="veh004_88" depart="31383" from="237271809#3" to="1085107695" type="passenger"/>
  <trip id="veh004_89" depart="28056" from="10632130" to="177743535#0" type="passenger"/>
  <trip id="veh004_90" depart="31638" from="-70662727#0" to="240007894#1" type="passenger"/>
  <trip id="veh004_91" depart="25680" from="159942190" to="431876176" type="passenger"/>
  <trip id="veh004_92" depart="28348" from="-33683398#2" to="610738424#0" type="passenger"/>
  <trip id="veh004_93" depart="28341" from="175760666" to="159942190" type="passenger"/>
  <trip id="veh004_94" depart="29394" from="-768805831#1" to="159538498#1" type="passenger"/>
  <trip id="veh004_95" depart="32397" from="1064853456" to="-49073765#0" type="passenger"/>
  <trip id="veh004_96" depart="29378" from="1192417710" to="40784659#1" type="passenger"/>
  <trip id="veh004_97" depart="30310" from="40784659#1" to="610738423#1" type="passenger"/>
  <trip id="veh004_98" depart="25526" from="24465651#1" to="-1092108194" type="passenger"/>
  <trip id="veh004_99" depart="31531" from="-70662727#0" to="41866489#1" type="passenger"/>
  <trip id="veh004_100" depart="31983" from="1092600147#1" to="610738424#0" type="passenger"/>
  <trip id="veh004_101" depart="26650" from="666271191" to="-40784652#0" type="passenger"/>
  <trip id="veh004_102" depart="25482" from="-70662723#0" to="50843196#0" type="passenger"/>
  <trip id="veh004_103" depart="30985" from="1064853456" to="159538498#1" type="passenger"/>
  <trip id="veh004_104" depart="28175" from="41866489#1" to="-238219473" type="passenger"/>
  <trip id="veh004_105" depart="30668" from="446640439" to="47283778#2" type="passenger"/>
  <trip id="veh004_106" depart="26642" from="72233381" to="137220971" type="passenger"/>
  <trip id="veh004_107" depart="29655" from="446640439" to="1064853456" type="passenger"/>
  <trip id="veh004_108" depart="31890" from="47386145" to="240007894#1" type="passenger"/>
  <trip id="veh004_109" depart="30692" from="237271809#3" to="24446738#3" type="passenger"/>
  <trip id="veh004_110" depart="27945" from="50323222#1" to="610738424#0" type="passenger"/>
  <trip id="veh004_111" depart="30966" from="47386145" to="159538498#1" type="passenger"/>
  <trip id="veh004_112" depart="30254" from="159942190" to="44121335#0" type="passenger"/>
  <trip id="veh004_113" depart="26447" from="24446738#3" to="1363506394#4" type="passenger"/>
  <trip id="veh004_114" depart="29603" from="10632130" to="227960847#0" type="passenger"/>
  <trip id="veh004_115" depart="29381" from="441994803" to="43763701#3" type="passenger"/>
  <trip id="veh004_116" depart="30808" from="9704194#4" to="998773447#1" type="passenger"/>
  <trip id="veh004_117" depart="25622" from="10632130" to="-1092108194" type="passenger"/>
  <trip id="veh004_118" depart="28151" from="159942190" to="-863774952#0" type="passenger"/>
  <trip id="veh004_119" depart="27491" from="177743535#0" to="47386111#1" type="passenger"/>
  <trip id="veh004_120" depart="29113" from="240034070#0" to="-70662723#0" type="passenger"/>
  <trip id="veh004_121" depart="30179" from="1326094907#0" to="1207401650" type="passenger"/>
  <trip id="veh004_122" depart="28608" from="237271809#2" to="240034070#0" type="passenger"/>
  <trip id="veh004_123" depart="29854" from="237271809#2" to="177743535#0" type="passenger"/>
  <trip id="veh004_124" depart="30736" from="145007016" to="1068434254#0" type="passenger"/>
  <trip id="veh004_125" depart="29352" from="1020246871" to="40140141#0" type="passenger"/>
  <trip id="veh004_126" depart="27053" from="12088974#3" to="40784659#0" type="passenger"/>
  <trip id="veh004_127" depart="32145" from="50323222#1" to="47386145" type="passenger"/>
  <trip id="veh004_128" depart="26696" from="44472940#0" to="177743535#0" type="passenger"/>
  <trip id="veh004_129" depart="28453" from="446640439" to="1085107695" type="passenger"/>
  <trip id="veh004_130" depart="26515" from="-769600704" to="-768805831#1" type="passenger"/>
  <trip id="veh004_131" depart="29340" from="1207401650" to="240034070#0" type="passenger"/>
  <trip id="veh004_132" depart="31124" from="-863774952#0" to="610738424#0" type="passenger"/>
  <trip id="veh004_133" depart="26855" from="44472940#0" to="40299122#2" type="passenger"/>
  <trip id="veh004_134" depart="27938" from="900386124#0" to="968332515#0" type="passenger"/>
  <trip id="veh004_135" depart="25995" from="610738424#0" to="-47279971" type="passenger"/>
  <trip id="veh004_136" depart="29378" from="39659484" to="-40784652#0" type="passenger"/>
  <trip id="veh004_137" depart="31434" from="237271809#2" to="-33683398#2" type="passenger"/>
  <trip id="veh004_138" depart="31018" from="-40784652#0" to="1363506394#4" type="passenger"/>
  <trip id="veh004_139" depart="31572" from="47386145" to="145007016" type="passenger"/>
  <trip id="veh004_140" depart="29031" from="47386145" to="173471112" type="passenger"/>
  <trip id="veh004_141" depart="28036" from="-70662723#0" to="-238219473" type="passenger"/>
  <trip id="veh004_142" depart="31456" from="173471112" to="40784659#1" type="passenger"/>
  <trip id="veh004_143" depart="31882" from="50325553" to="-47279971" type="passenger"/>
  <trip id="veh004_144" depart="29069" from="47283778#2" to="-768805831#1" type="passenger"/>
  <trip id="veh004_145" depart="26519" from="446640439" to="145007016" type="passenger"/>
  <trip id="veh004_146" depart="27665" from="24465651#1" to="43763701#3" type="passenger"/>
  <trip id="veh004_147" depart="26668" from="240640943#1" to="610738423#1" type="passenger"/>
  <trip id="veh004_148" depart="28423" from="44472940#1" to="173471112" type="passenger"/>
  <trip id="veh004_149" depart="31381" from="240034070#0" to="1092600147#1" type="passenger"/>
  <trip id="veh004_150" depart="26200" from="137220971" to="900390006#1" type="passenger"/>
  <trip id="veh004_151" depart="29456" from="40784659#0" to="177743535#0" type="passenger"/>
  <trip id="veh004_152" depart="30980" from="159942190" to="1064853456" type="passenger"/>
  <trip id="veh004_153" depart="32394" from="1192417710" to="610738423#1" type="passenger"/>
  <trip id="veh004_154" depart="25691" from="177743535#0" to="-1092108194" type="passenger"/>
  <trip id="veh004_155" depart="29004" from="145007016" to="240640942#1" type="passenger"/>
  <trip id="veh004_156" depart="29702" from="240640942#1" to="-863774952#0" type="passenger"/>
  <trip id="veh004_157" depart="30969" from="240007894#1" to="-33683398#2" type="passenger"/>
  <trip id="veh004_158" depart="28228" from="24446738#3" to="47386145" type="passenger"/>
  <trip id="veh004_159" depart="31116" from="47386145" to="968332515#0" type="passenger"/>
  <trip id="veh004_160" depart="26233" from="240034070#0" to="47386145" type="passenger"/>
  <trip id="veh004_161" depart="30908" from="1092600147#1" to="-47279971" type="passenger"/>
  <trip id="veh004_162" depart="30018" from="900390006#1" to="240640942#1" type="passenger"/>
  <trip id="veh004_163" depart="32225" from="240640943#1" to="41866489#1" type="passenger"/>
  <trip id="veh004_164" depart="26064" from="50843196#0" to="72233381" type="passenger"/>
  <trip id="veh004_165" depart="30410" from="24465651#1" to="-72083131" type="passenger"/>
  <trip id="veh004_166" depart="31937" from="47386145" to="-226907342#1" type="passenger"/>
  <trip id="veh004_167" depart="30181" from="-33683398#2" to="237271809#2" type="passenger"/>
  <trip id="veh004_168" depart="31975" from="1092600147#1" to="1068434254#0" type="passenger"/>
  <trip id="veh004_169" depart="25990" from="-40784652#0" to="39659484" type="passenger"/>
  <trip id="veh004_170" depart="27177" from="-1273359359#1" to="177743535#0" type="passenger"/>
  <trip id="veh004_171" depart="25767" from="24465651#1" to="50325553" type="passenger"/>
  <trip id="veh004_172" depart="30231" from="998773447#1" to="177743535#0" type="passenger"/>
  <trip id="veh004_173" depart="25650" from="40140141#0" to="227960847#0" type="passenger"/>
  <trip id="veh004_174" depart="26935" from="159942190" to="10632130" type="passenger"/>
  <trip id="veh004_175" depart="28739" from="173471112" to="240640942#1" type="passenger"/>
  <trip id="veh004_176" depart="25225" from="240640942#1" to="-1273359359#1" type="passenger"/>
  <trip id="veh004_177" depart="26472" from="610738423#1" to="50843196#0" type="passenger"/>
  <trip id="veh004_178" depart="28318" from="12088974#3" to="-33683398#2" type="passenger"/>
  <trip id="veh004_179" depart="30507" from="47386145" to="-226907342#1" type="passenger"/>
  <trip id="veh004_180" depart="29223" from="44121335#0" to="159942190" type="passenger"/>
  <trip id="veh004_181" depart="28322" from="1119184635#1" to="-72083131" type="passenger"/>
  <trip id="veh004_182" depart="31015" from="9704194#4" to="227960847#0" type="passenger"/>
  <trip id="veh004_183" depart="27265" from="159538498#1" to="177743535#0" type="passenger"/>
  <trip id="veh004_184" depart="32236" from="240007894#1" to="-226907342#1" type="passenger"/>
  <trip id="veh004_185" depart="31685" from="1326094907#0" to="40784659#0" type="passenger"/>
  <trip id="veh004_186" depart="28621" from="1363506394#4" to="-40784652#0" type="passenger"/>
  <trip id="veh004_187" depart="29440" from="610738423#1" to="240640942#1" type="passenger"/>
  <trip id="veh004_188" depart="28641" from="50843200#1" to="968332515#0" type="passenger"/>
  <trip id="veh004_189" depart="32132" from="610738424#0" to="240640942#1" type="passenger"/>
  <trip id="veh004_190" depart="26003" from="44472940#1" to="175637233#0" type="passenger"/>
  <trip id="veh004_191" depart="30615" from="50323222#1" to="68868377" type="passenger"/>
  <trip id="veh004_192" depart="26898" from="220775319" to="40784659#1" type="passenger"/>
  <trip id="veh004_193" depart="28823" from="159538498#1" to="1064799814" type="passenger"/>
  <trip id="veh004_194" depart="29070" from="41866489#1" to="159942190" type="passenger"/>
  <trip id="veh004_195" depart="30591" from="-33683398#2" to="-70662723#0" type="passenger"/>
  <trip id="veh004_196" depart="25597" from="-769600704" to="47386111#1" type="passenger"/>
  <trip id="veh004_197" depart="26403" from="159942190" to="-226907342#1" type="passenger"/>
  <trip id="veh004_198" depart="28813" from="1092600147#1" to="-769600704" type="passenger"/>
  <trip id="veh004_199" depart="31598" from="666271191" to="136232037#0" type="passenger"/>
  <trip id="veh004_200" depart="30939" from="-47279971" to="1192417710" type="passenger"/>
  <trip id="veh004_201" depart="27797" from="240034070#0" to="12088974#3" type="passenger"/>
  <trip id="veh004_202" depart="27309" from="-240666072#0" to="1207401650" type="passenger"/>
  <trip id="veh004_203" depart="26236" from="43763701#3" to="-50323229" type="passenger"/>
  <trip id="veh004_204" depart="26830" from="1092600147#1" to="593755854" type="passenger"/>
  <trip id="veh004_205" depart="25487" from="610738424#0" to="240640942#1" type="passenger"/>
  <trip id="veh004_206" depart="25666" from="47386145" to="-33683398#2" type="passenger"/>
  <trip id="veh004_207" depart="25868" from="593755854" to="-70662727#0" type="passenger"/>
  <trip id="veh004_208" depart="27346" from="446640439" to="44472940#1" type="passenger"/>
  <trip id="veh004_209" depart="30075" from="50323222#1" to="220775319" type="passenger"/>
  <trip id="veh004_210" depart="32364" from="10632130" to="998773447#1" type="passenger"/>
  <trip id="veh004_211" depart="32094" from="-33683398#2" to="137220971" type="passenger"/>
  <trip id="veh004_212" depart="28110" from="-768805831#1" to="1363506394#4" type="passenger"/>
  <trip id="veh004_213" depart="29730" from="1064799814" to="-33683398#2" type="passenger"/>
  <trip id="veh004_214" depart="26685" from="159942190" to="-1092108194" type="passenger"/>
  <trip id="veh004_215" depart="27581" from="10629709#0" to="-769600704" type="passenger"/>
  <trip id="veh004_216" depart="27733" from="50843196#0" to="998773447#1" type="passenger"/>
  <trip id="veh004_217" depart="27057" from="441994803" to="175760666" type="passenger"/>
  <trip id="veh004_218" depart="28297" from="47386145" to="-1092108194" type="passenger"/>
  <trip id="veh004_219" depart="29564" from="900390006#1" to="50325553" type="passenger"/>
  <trip id="veh004_220" depart="28529" from="610738424#0" to="1207401650" type="passenger"/>
  <trip id="veh004_221" depart="31233" from="10632130" to="44472940#1" type="passenger"/>
  <trip id="veh004_222" depart="28267" from="1326094907#0" to="-70662723#0" type="passenger"/>
  <trip id="veh004_223" depart="26266" from="240007894#1" to="43763701#3" type="passenger"/>
  <trip id="veh004_224" depart="29121" from="-238219473" to="1068434254#0" type="passenger"/>
  <trip id="veh004_225" depart="25305" from="237271809#2" to="47267014#1" type="passenger"/>
  <trip id="veh004_226" depart="29840" from="-70662727#0" to="610738424#0" type="passenger"/>
  <trip id="veh004_227" depart="25555" from="159942190" to="-1092108194" type="passenger"/>
  <trip id="veh004_228" depart="31893" from="610738424#0" to="240034070#0" type="passenger"/>
  <trip id="veh004_229" depart="26911" from="1207401650" to="159538498#1" type="passenger"/>
  <trip id="veh004_230" depart="27555" from="24446738#3" to="47386145" type="passenger"/>
  <trip id="veh004_231" depart="28419" from="240640942#1" to="240034070#0" type="passenger"/>
  <trip id="veh004_232" depart="32038" from="136232037#0" to="40784659#0" type="passenger"/>
  <trip id="veh004_233" depart="27947" from="10632130" to="1207401650" type="passenger"/>
  <trip id="veh004_234" depart="26428" from="-70662723#0" to="40140141#0" type="passenger"/>
  <trip id="veh004_235" depart="26091" from="159942190" to="240640942#1" type="passenger"/>
  <trip id="veh004_236" depart="28299" from="-232359138" to="159942190" type="passenger"/>
  <trip id="veh004_237" depart="26325" from="39659484" to="177743535#0" type="passenger"/>
  <trip id="veh004_238" depart="29611" from="237271809#2" to="-70662723#0" type="passenger"/>
  <trip id="veh004_239" depart="30480" from="-232359138" to="760475718" type="passenger"/>
  <trip id="veh004_240" depart="25955" from="175760666" to="1363506394#4" type="passenger"/>
  <trip id="veh004_241" depart="29008" from="177743535#0" to="50325553" type="passenger"/>
  <trip id="veh004_242" depart="31459" from="240007894#1" to="-33683398#2" type="passenger"/>
  <trip id="veh004_243" depart="32259" from="240640943#1" to="175637233#0" type="passenger"/>
  <trip id="veh004_244" depart="25530" from="1091984826#0" to="-70662723#0" type="passenger"/>
  <trip id="veh004_245" depart="25403" from="1119184635#1" to="240666074#4" type="passenger"/>
  <trip id="veh004_246" depart="27719" from="237271809#3" to="1085107695" type="passenger"/>
  <trip id="veh004_247" depart="28353" from="47386145" to="237271809#2" type="passenger"/>
  <trip id="veh004_248" depart="30525" from="40140141#0" to="10629709#0" type="passenger"/>
  <trip id="veh004_249" depart="27372" from="240007894#1" to="10632130" type="passenger"/>
  <trip id="veh004_250" depart="28414" from="900386124#0" to="173471112" type="passenger"/>
  <trip id="veh004_251" depart="28970" from="-240666072#0" to="50323222#1" type="passenger"/>
  <trip id="veh004_252" depart="32399" from="68868377" to="9704194#4" type="passenger"/>
  <trip id="veh004_253" depart="31737" from="47386145" to="593755854" type="passenger"/>
  <trip id="veh004_254" depart="29014" from="12088974#3" to="-72083131" type="passenger"/>
  <trip id="veh004_255" depart="27293" from="610738423#1" to="40784659#0" type="passenger"/>
  <trip id="veh004_256" depart="25876" from="610738424#0" to="50843196#0" type="passenger"/>
  <trip id="veh004_257" depart="28945" from="47386111#1" to="-40784652#0" type="passenger"/>
  <trip id="veh004_258" depart="28701" from="43763701#3" to="50323222#1" type="passenger"/>
  <trip id="veh004_259" depart="28502" from="240640942#1" to="240034070#0" type="passenger"/>
  <trip id="veh004_260" depart="26462" from="-768805831#1" to="1020246871" type="passenger"/>
  <trip id="veh004_261" depart="32398" from="159942190" to="44472940#0" type="passenger"/>
  <trip id="veh004_262" depart="25819" from="9704194#4" to="1363506394#4" type="passenger"/>
  <trip id="veh004_263" depart="27372" from="12088974#3" to="-33683398#2" type="passenger"/>
  <trip id="veh004_264" depart="32282" from="220775319" to="24465651#1" type="passenger"/>
  <trip id="veh004_265" depart="25606" from="40140141#0" to="50323222#1" type="passenger"/>
  <trip id="veh004_266" depart="27227" from="593755854" to="237271809#3" type="passenger"/>
  <trip id="veh004_267" depart="27093" from="-33683398#2" to="50843200#1" type="passenger"/>
  <trip id="veh004_268" depart="30856" from="593755854" to="159538498#1" type="passenger"/>
  <trip id="veh004_269" depart="31318" from="1363506394#4" to="137220971" type="passenger"/>
  <trip id="veh004_270" depart="28019" from="1363506394#4" to="240640942#1" type="passenger"/>
  <trip id="veh004_271" depart="26415" from="44121335#0" to="220775319" type="passenger"/>
  <trip id="veh004_272" depart="27881" from="1085107695" to="47386111#1" type="passenger"/>
  <trip id="veh004_273" depart="27173" from="240034070#0" to="446640439" type="passenger"/>
  <trip id="veh004_274" depart="29304" from="1324706272" to="50323222#1" type="passenger"/>
  <trip id="veh004_275" depart="25245" from="40784659#1" to="175637233#0" type="passenger"/>
  <trip id="veh004_276" depart="30268" from="10632130" to="1091984826#0" type="passenger"/>
  <trip id="veh004_277" depart="29017" from="40784659#0" to="593755854" type="passenger"/>
  <trip id="veh004_278" depart="25277" from="-769600704" to="-49073765#0" type="passenger"/>
  <trip id="veh004_279" depart="30415" from="50323222#1" to="1363506394#4" type="passenger"/>
  <trip id="veh004_280" depart="26551" from="12088974#3" to="998773447#1" type="passenger"/>
  <trip id="veh004_281" depart="27839" from="1192417710" to="47386145" type="passenger"/>
  <trip id="veh004_282" depart="28214" from="240640942#1" to="1068434254#0" type="passenger"/>
  <trip id="veh004_283" depart="30238" from="240034070#0" to="-70662727#0" type="passenger"/>
  <trip id="veh004_284" depart="28078" from="1207401650" to="-768805831#1" type="passenger"/>
  <trip id="veh004_285" depart="26934" from="159538498#1" to="177743535#0" type="passenger"/>
  <trip id="veh004_286" depart="25240" from="159942190" to="1091984826#0" type="passenger"/>
  <trip id="veh004_287" depart="29272" from="593755854" to="9704194#4" type="passenger"/>
  <trip id="veh004_288" depart="25514" from="610738423#1" to="1363506394#4" type="passenger"/>
  <trip id="veh004_289" depart="29303" from="50325553" to="50843196#0" type="passenger"/>
  <trip id="veh004_290" depart="26455" from="237271809#3" to="-232359138" type="passenger"/>
  <trip id="veh004_291" depart="28098" from="1324706272" to="159538498#1" type="passenger"/>
  <trip id="veh004_292" depart="27233" from="-10632130" to="-72083131" type="passenger"/>
  <trip id="veh004_293" depart="30114" from="159942190" to="1324706272" type="passenger"/>
  <trip id="veh004_294" depart="31043" from="431876176" to="39659484" type="passenger"/>
  <trip id="veh004_295" depart="25620" from="-33683398#2" to="47386145" type="passenger"/>
  <trip id="veh004_296" depart="30964" from="1207401650" to="-33683398#2" type="passenger"/>
  <trip id="veh004_297" depart="26386" from="-1092108194" to="50843196#0" type="passenger"/>
  <trip id="veh004_298" depart="25642" from="-1092108194" to="47386145" type="passenger"/>
  <trip id="veh004_299" depart="28468" from="24623782#1" to="1068434254#0" type="passenger"/>
  <trip id="veh004_300" depart="29303" from="44472940#0" to="1207401650" type="passenger"/>
  <trip id="veh004_301" depart="26756" from="47386145" to="-1092108194" type="passenger"/>
  <trip id="veh004_302" depart="27941" from="-47279971" to="-50323229" type="passenger"/>
  <trip id="veh004_303" depart="26228" from="-33683398#2" to="237271809#2" type="passenger"/>
  <trip id="veh004_304" depart="29796" from="-33683398#2" to="610738424#0" type="passenger"/>
  <trip id="veh004_305" depart="31405" from="240034070#0" to="1068434254#0" type="passenger"/>
  <trip id="veh004_306" depart="29200" from="998773447#1" to="-1273359359#1" type="passenger"/>
  <trip id="veh004_307" depart="32376" from="-49073765#0" to="1085107695" type="passenger"/>
  <trip id="veh004_308" depart="28847" from="1326094907#0" to="39659484" type="passenger"/>
  <trip id="veh004_309" depart="26872" from="220775319" to="50843200#1" type="passenger"/>
  <trip id="veh004_310" depart="28159" from="240034070#0" to="1092600147#1" type="passenger"/>
  <trip id="veh004_311" depart="29673" from="-1092108194" to="-238219473" type="passenger"/>
  <trip id="veh004_312" depart="26220" from="220775319" to="50323222#1" type="passenger"/>
  <trip id="veh004_313" depart="29273" from="610738423#1" to="998773447#1" type="passenger"/>
  <trip id="veh004_314" depart="26302" from="900390006#1" to="12088974#3" type="passenger"/>
  <trip id="veh004_315" depart="30431" from="237271809#3" to="1324706272" type="passenger"/>
  <trip id="veh004_316" depart="29178" from="47386145" to="68868377" type="passenger"/>
  <trip id="veh004_317" depart="27632" from="175760666" to="-70662723#0" type="passenger"/>
  <trip id="veh004_318" depart="26546" from="610738423#1" to="10632130" type="passenger"/>
  <trip id="veh004_319" depart="28961" from="24465651#1" to="177743535#0" type="passenger"/>
  <trip id="veh004_320" depart="25262" from="-863774952#0" to="610738424#0" type="passenger"/>
  <trip id="veh004_321" depart="30708" from="24465651#1" to="1085107695" type="passenger"/>
  <trip id="veh004_322" depart="29713" from="39659484" to="-40784652#0" type="passenger"/>
  <trip id="veh004_323" depart="28570" from="-70662727#0" to="175760666" type="passenger"/>
  <trip id="veh004_324" depart="32129" from="-33683398#2" to="177743535#0" type="passenger"/>