<trips>
  <trip id="veh006_0" depart="67028" from="446640439" to="-52205556" type="passenger"/>
  <trip id="veh006_1" depart="65339" from="446640439" to="237271809#4" type="passenger"/>
  <trip id="veh006_2" depart="62556" from="1016015052" to="49171011#1" type="passenger"/>
  <trip id="veh006_3" depart="66585" from="504456844" to="457547879#4" type="passenger"/>
  <trip id="veh006_4" depart="62986" from="163764181#0" to="-40035992#5" type="passenger"/>
  <trip id="veh006_5" depart="65366" from="49171011#1" to="446640439" type="passenger"/>
  <trip id="veh006_6" depart="61800" from="504456844" to="30620777" type="passenger"/>
  <trip id="veh006_7" depart="66707" from="47225638#0" to="-52205556" type="passenger"/>
  <trip id="veh006_8" depart="66919" from="504456844" to="-52205556" type="passenger"/>
  <trip id="veh006_9" depart="66923" from="446640439" to="238492234#0" type="passenger"/>
  <trip id="veh006_10" depart="63427" from="958852841" to="-1068139751" type="passenger"/>
  <trip id="veh006_11" depart="65878" from="-226855595#1" to="39674883#1" type="passenger"/>
  <trip id="veh006_12" depart="64086" from="74450559" to="39697113#3" type="passenger"/>
  <trip id="veh006_13" depart="64491" from="1272337500" to="-504456842" type="passenger"/>
  <trip id="veh006_14" depart="66181" from="237271809#4" to="40784659#1" type="passenger"/>
  <trip id="veh006_15" depart="63567" from="-226854874" to="71293415#1" type="passenger"/>
  <trip id="veh006_16" depart="66908" from="1235145933" to="593755854" type="passenger"/>
  <trip id="veh006_17" depart="63903" from="163764181#0" to="504456844" type="passenger"/>
  <trip id="veh006_18" depart="67606" from="438516309#1" to="10738871#0" type="passenger"/>
  <trip id="veh006_19" depart="67602" from="39838789#2" to="1262057043#2" type="passenger"/>
  <trip id="veh006_20" depart="63792" from="71293415#1" to="1067953247#1" type="passenger"/>
  <trip id="veh006_21" depart="66800" from="41862226#1" to="47386124" type="passenger"/>
  <trip id="veh006_22" depart="66153" from="39697113#3" to="438516309#1" type="passenger"/>
  <trip id="veh006_23" depart="62779" from="769245718" to="49171011#1" type="passenger"/>
  <trip id="veh006_24" depart="63026" from="1068144844" to="238492234#0" type="passenger"/>
  <trip id="veh006_25" depart="62547" from="-1068139751" to="238492234#0" type="passenger"/>
  <trip id="veh006_26" depart="67972" from="-1124366653" to="504456844" type="passenger"/>
  <trip id="veh006_27" depart="66890" from="1272337500" to="457547879#4" type="passenger"/>
  <trip id="veh006_28" depart="64409" from="1005394019#0" to="446640439" type="passenger"/>
  <trip id="veh006_29" depart="67068" from="1235145933" to="49171011#1" type="passenger"/>
  <trip id="veh006_30" depart="65537" from="136014464#0" to="74450559" type="passenger"/>
  <trip id="veh006_31" depart="61420" from="85796876#1" to="39697113#3" type="passenger"/>
  <trip id="veh006_32" depart="66465" from="-39658122#4" to="41862226#1" type="passenger"/>
  <trip id="veh006_33" depart="66509" from="958852841" to="74450559" type="passenger"/>
  <trip id="veh006_34" depart="65379" from="457547879#4" to="-126724514#0" type="passenger"/>
  <trip id="veh006_35" depart="64890" from="136014464#0" to="1005394020#2" type="passenger"/>
  <trip id="veh006_36" depart="62508" from="238492234#0" to="1092372218" type="passenger"/>
  <trip id="veh006_37" depart="68223" from="30620777" to="1262057043#2" type="passenger"/>
  <trip id="veh006_38" depart="67001" from="49219226" to="169004589#0" type="passenger"/>
  <trip id="veh006_39" depart="61461" from="-15676150#0" to="240666074#0" type="passenger"/>
  <trip id="veh006_40" depart="61496" from="-50383097#9" to="446640439" type="passenger"/>
  <trip id="veh006_41" depart="63774" from="1064816194" to="39674883#1" type="passenger"/>
  <trip id="veh006_42" depart="64656" from="74450559" to="-50383097#9" type="passenger"/>
  <trip id="veh006_43" depart="65000" from="1092372218" to="900390006#1" type="passenger"/>
  <trip id="veh006_44" depart="66538" from="958852841" to="1262057043#2" type="passenger"/>
  <trip id="veh006_45" depart="62274" from="39658122#0" to="1016015052" type="passenger"/>
  <trip id="veh006_46" depart="62067" from="-1068139751" to="238492234#0" type="passenger"/>
  <trip id="veh006_47" depart="62790" from="-52205556" to="-226855595#1" type="passenger"/>
  <trip id="veh006_48" depart="64656" from="143996571#1" to="1235145933" type="passenger"/>
  <trip id="veh006_49" depart="66039" from="1262057043#2" to="50843170" type="passenger"/>
  <trip id="veh006_50" depart="65358" from="238492234#0" to="-50383097#9" type="passenger"/>
  <trip id="veh006_51" depart="66252" from="39674883#1" to="-226854874" type="passenger"/>
  <trip id="veh006_52" depart="62239" from="504456844" to="238492234#0" type="passenger"/>
  <trip id="veh006_53" depart="64307" from="143996571#1" to="163764181#0" type="passenger"/>
  <trip id="veh006_54" depart="65903" from="446640439" to="47386145" type="passenger"/>
  <trip id="veh006_55" depart="66609" from="169004589#0" to="1068144844" type="passenger"/>
  <trip id="veh006_56" depart="62748" from="-220770272" to="85796876#1" type="passenger"/>
  <trip id="veh006_57" depart="64594" from="-52205556" to="-40035904#1" type="passenger"/>
  <trip id="veh006_58" depart="62828" from="30620777" to="-220770272" type="passenger"/>
  <trip id="veh006_59" depart="61978" from="-50843173#3" to="9704194#7" type="passenger"/>
  <trip id="veh006_60" depart="61507" from="958852841" to="238492234#0" type="passenger"/>
  <trip id="veh006_61" depart="66247" from="958852841" to="1262057048#0" type="passenger"/>
  <trip id="veh006_62" depart="64001" from="504456844" to="40784659#1" type="passenger"/>
  <trip id="veh006_63" depart="67665" from="446640439" to="169004589#0" type="passenger"/>
  <trip id="veh006_64" depart="62387" from="39658122#0" to="1005394020#2" type="passenger"/>
  <trip id="veh006_65" depart="62061" from="39697113#3" to="71293415#1" type="passenger"/>
  <trip id="veh006_66" depart="61685" from="-1387302975" to="39674883#1" type="passenger"/>
  <trip id="veh006_67" depart="62001" from="1262057043#2" to="30620777" type="passenger"/>
  <trip id="veh006_68" depart="67240" from="39658122#0" to="47386145" type="passenger"/>
  <trip id="veh006_69" depart="62073" from="-504456842" to="-1068139751" type="passenger"/>
  <trip id="veh006_70" depart="67456" from="169004589#0" to="50843170" type="passenger"/>
  <trip id="veh006_71" depart="63281" from="446640439" to="30620777" type="passenger"/>
  <trip id="veh006_72" depart="61795" from="136014464#0" to="958852841" type="passenger"/>
  <trip id="veh006_73" depart="63132" from="1235145933" to="1092108127" type="passenger"/>
  <trip id="veh006_74" depart="66056" from="1262057048#0" to="1067953247#1" type="passenger"/>
  <trip id="veh006_75" depart="64127" from="446640439" to="-39750994#4" type="passenger"/>
  <trip id="veh006_76" depart="62902" from="237271809#4" to="-1068139751" type="passenger"/>
  <trip id="veh006_77" depart="65189" from="136014464#0" to="504456844" type="passenger"/>
  <trip id="veh006_78" depart="67330" from="47386145" to="237271809#4" type="passenger"/>
  <trip id="veh006_79" depart="66812" from="-126724514#0" to="40784659#1" type="passenger"/>
  <trip id="veh006_80" depart="67886" from="35422924#4" to="-220770272" type="passenger"/>
  <trip id="veh006_81" depart="63250" from="35422924#4" to="240666074#0" type="passenger"/>
  <trip id="veh006_82" depart="64703" from="1235145933" to="49219226" type="passenger"/>
  <trip id="veh006_83" depart="65480" from="39697113#3" to="35422924#4" type="passenger"/>
  <trip id="veh006_84" depart="61857" from="457547879#4" to="769245718" type="passenger"/>
  <trip id="veh006_85" depart="66096" from="35422924#4" to="163764181#0" type="passenger"/>
  <trip id="veh006_86" depart="68086" from="-176637359#2" to="-1225879469" type="passenger"/>
  <trip id="veh006_87" depart="64568" from="74450559" to="958852841" type="passenger"/>
  <trip id="veh006_88" depart="63825" from="1092108127" to="143996571#1" type="passenger"/>
  <trip id="veh006_89" depart="66561" from="40784659#1" to="169004589#0" type="passenger"/>
  <trip id="veh006_90" depart="64368" from="1092108127" to="446640439" type="passenger"/>
  <trip id="veh006_91" depart="61687" from="40784659#1" to="-1225879469" type="passenger"/>
  <trip id="veh006_92" depart="62040" from="238492234#0" to="-51296363" type="passenger"/>
  <trip id="veh006_93" depart="64598" from="40040179#12" to="143996571#1" type="passenger"/>
  <trip id="veh006_94" depart="63719" from="136014464#0" to="504456844" type="passenger"/>
  <trip id="veh006_95" depart="66675" from="85796876#1" to="504456844" type="passenger"/>
  <trip id="veh006_96" depart="65096" from="49171011#1" to="-220770272" type="passenger"/>
  <trip id="veh006_97" depart="63157" from="-1225879469" to="39658122#0" type="passenger"/>
  <trip id="veh006_98" depart="64015" from="446640439" to="39674883#1" type="passenger"/>
  <trip id="veh006_99" depart="68367" from="446640439" to="-126724514#0" type="passenger"/>
  <trip id="veh006_100" depart="67197" from="39697113#3" to="169004589#0" type="passenger"/>
  <trip id="veh006_101" depart="61709" from="958852841" to="504456844" type="passenger"/>
  <trip id="veh006_102" depart="66702" from="-451728952#4" to="143996571#1" type="passenger"/>
  <trip id="veh006_103" depart="61522" from="240666074#0" to="9704194#7" type="passenger"/>
  <trip id="veh006_104" depart="67753" from="1068144844" to="-52205556" type="passenger"/>
  <trip id="veh006_105" depart="64329" from="-220770272" to="30620777" type="passenger"/>
  <trip id="veh006_106" depart="67801" from="424580470#5" to="1067953247#1" type="passenger"/>
  <trip id="veh006_107" depart="61433" from="47386145" to="-39750994#4" type="passenger"/>
  <trip id="veh006_108" depart="61882" from="136014464#0" to="71293415#1" type="passenger"/>
  <trip id="veh006_109" depart="64436" from="238492234#0" to="-504456842" type="passenger"/>
  <trip id="veh006_110" depart="67922" from="163764181#0" to="593755854" type="passenger"/>
  <trip id="veh006_111" depart="65220" from="71293415#1" to="-50323232#2" type="passenger"/>
  <trip id="veh006_112" depart="65066" from="238492234#0" to="49171011#1" type="passenger"/>
  <trip id="veh006_113" depart="65238" from="-226854874" to="-50843173#3" type="passenger"/>
  <trip id="veh006_114" depart="65484" from="47386145" to="238492234#0" type="passenger"/>
  <trip id="veh006_115" depart="65228" from="-39750994#4" to="958852841" type="passenger"/>
  <trip id="veh006_116" depart="66200" from="136014464#0" to="679060031" type="passenger"/>
  <trip id="veh006_117" depart="62184" from="12088962#10" to="163764181#0" type="passenger"/>
  <trip id="veh006_118" depart="67614" from="-39750994#4" to="504456844" type="passenger"/>
  <trip id="veh006_119" depart="62109" from="-220770272" to="-863774952#1" type="passenger"/>
  <trip id="veh006_120" depart="66541" from="1005394020#2" to="-39750994#4" type="passenger"/>
  <trip id="veh006_121" depart="67830" from="1016015052" to="1235145933" type="passenger"/>
  <trip id="veh006_122" depart="64965" from="163764181#0" to="-51296363" type="passenger"/>
  <trip id="veh006_123" depart="67309" from="-50323232#2" to="74450559" type="passenger"/>
  <trip id="veh006_124" depart="63188" from="438516309#1" to="39689392#0" type="passenger"/>
  <trip id="veh006_125" depart="63163" from="240666074#0" to="1064816194" type="passenger"/>
  <trip id="veh006_126" depart="62258" from="238492234#0" to="446640439" type="passenger"/>
  <trip id="veh006_127" depart="66270" from="-1080217656#1" to="39674883#1" type="passenger"/>
  <trip id="veh006_128" depart="61845" from="39689392#0" to="163764181#0" type="passenger"/>
  <trip id="veh006_129" depart="66296" from="40784659#1" to="457547879#4" type="passenger"/>
  <trip id="veh006_130" depart="62912" from="71293415#1" to="169004589#0" type="passenger"/>
  <trip id="veh006_131" depart="61764" from="238492234#0" to="39658122#0" type="passenger"/>
  <trip id="veh006_132" depart="66468" from="238492234#0" to="40040179#12" type="passenger"/>
  <trip id="veh006_133" depart="68225" from="238492234#0" to="39838789#2" type="passenger"/>
  <trip id="veh006_134" depart="62528" from="41862226#1" to="163764181#0" type="passenger"/>
  <trip id="veh006_135" depart="64545" from="39658122#0" to="47386124" type="passenger"/>
  <trip id="veh006_136" depart="65163" from="40040179#12" to="30620777" type="passenger"/>
  <trip id="veh006_137" depart="67491" from="238492234#0" to="163764181#0" type="passenger"/>
  <trip id="veh006_138" depart="67741" from="47225638#0" to="-52205556" type="passenger"/>
  <trip id="veh006_139" depart="66430" from="30620777" to="446640439" type="passenger"/>
  <trip id="veh006_140" depart="67237" from="71293415#1" to="169004589#0" type="passenger"/>
  <trip id="veh006_141" depart="64410" from="169004589#0" to="-50371367#1" type="passenger"/>
  <trip id="veh006_142" depart="66992" from="238492234#0" to="-141172463#0" type="passenger"/>
  <trip id="veh006_143" depart="67298" from="163764181#0" to="1235145933" type="passenger"/>
  <trip id="veh006_144" depart="65990" from="163764181#0" to="-176637359#2" type="passenger"/>
  <trip id="veh006_145" depart="66444" from="237271809#4" to="958852841" type="passenger"/>
  <trip id="veh006_146" depart="62210" from="-40035992#5" to="169004589#0" type="passenger"/>
  <trip id="veh006_147" depart="67161" from="85796876#1" to="-39750994#4" type="passenger"/>
  <trip id="veh006_148" depart="63689" from="136014464#0" to="240666074#0" type="passenger"/>
  <trip id="veh006_149" depart="64617" from="238492234#0" to="39674883#1" type="passenger"/>
  <trip id="veh006_150" depart="65507" from="40040179#12" to="40784659#1" type="passenger"/>
  <trip id="veh006_151" depart="66566" from="237271809#4" to="1005394019#0" type="passenger"/>
  <trip id="veh006_152" depart="63362" from="1262057048#0" to="169004589#0" type="passenger"/>
  <trip id="veh006_153" depart="66700" from="-50371367#1" to="-226854874" type="passenger"/>
  <trip id="veh006_154" depart="63539" from="-176637359#2" to="-39750994#4" type="passenger"/>
  <trip id="veh006_155" depart="64463" from="39697113#3" to="1262057043#2" type="passenger"/>
  <trip id="veh006_156" depart="67853" from="-51296363" to="238492234#0" type="passenger"/>
  <trip id="veh006_157" depart="67282" from="47281535" to="1272337500" type="passenger"/>
  <trip id="veh006_158" depart="61916" from="-176637359#2" to="958852841" type="passenger"/>
  <trip id="veh006_159" depart="64525" from="71293415#1" to="40784659#1" type="passenger"/>
  <trip id="veh006_160" depart="63079" from="136752699" to="1235145933" type="passenger"/>
  <trip id="veh006_161" depart="65494" from="1092108127" to="237271809#4" type="passenger"/>
  <trip id="veh006_162" depart="65765" from="238492234#0" to="-1068139751" type="passenger"/>
  <trip id="veh006_163" depart="67755" from="237271809#4" to="1064476622#0" type="passenger"/>
  <trip id="veh006_164" depart="68296" from="163764181#0" to="232359137" type="passenger"/>
  <trip id="veh006_165" depart="63059" from="237271809#4" to="-220770272" type="passenger"/>
  <trip id="veh006_166" depart="67753" from="-50383097#9" to="-504456842" type="passenger"/>
  <trip id="veh006_167" depart="63035" from="163764181#0" to="1262057043#2" type="passenger"/>
  <trip id="veh006_168" depart="63241" from="-1387302975" to="1064476622#0" type="passenger"/>
  <trip id="veh006_169" depart="67516" from="237271809#4" to="39674883#1" type="passenger"/>
  <trip id="veh006_170" depart="63665" from="-451728952#4" to="163764181#0" type="passenger"/>
  <trip id="veh006_171" depart="61494" from="238492234#0" to="163764181#0" type="passenger"/>
  <trip id="veh006_172" depart="64791" from="1262057048#0" to="39697113#3" type="passenger"/>
  <trip id="veh006_173" depart="63710" from="-39750994#4" to="-1068139751" type="passenger"/>
  <trip id="veh006_174" depart="67938" from="238492234#0" to="1068144844" type="passenger"/>
  <trip id="veh006_175" depart="66263" from="1005394020#2" to="-50371367#1" type="passenger"/>
  <trip id="veh006_176" depart="68031" from="-176637359#2" to="9178721#3" type="passenger"/>
  <trip id="veh006_177" depart="63730" from="504456844" to="-51296363" type="passenger"/>
  <trip id="veh006_178" depart="64584" from="457547879#4" to="-176637359#2" type="passenger"/>
  <trip id="veh006_179" depart="61381" from="238492234#0" to="71293415#1" type="passenger"/>
  <trip id="veh006_180" depart="67551" from="39658122#0" to="1118804256#1" type="passenger"/>
  <trip id="veh006_181" depart="65917" from="958852841" to="-141172463#0" type="passenger"/>
  <trip id="veh006_182" depart="65276" from="1118804256#1" to="504456844" type="passenger"/>
  <trip id="veh006_183" depart="63704" from="-451728952#4" to="446640439" type="passenger"/>
  <trip id="veh006_184" depart="61935" from="900390006#1" to="1262057048#0" type="passenger"/>
  <trip id="veh006_185" depart="66824" from="-220770272" to="39658122#0" type="passenger"/>
  <trip id="veh006_186" depart="63006" from="-1068139751" to="1092108127" type="passenger"/>
  <trip id="veh006_187" depart="62887" from="446640439" to="1262057043#2" type="passenger"/>
  <trip id="veh006_188" depart="64585" from="35422924#4" to="-52205556" type="passenger"/>
  <trip id="veh006_189" depart="65349" from="169004589#0" to="-1068139751" type="passenger"/>
  <trip id="veh006_190" depart="65856" from="438516309#1" to="424580470#5" type="passenger"/>
  <trip id="veh006_191" depart="62541" from="438516309#1" to="1262057043#2" type="passenger"/>
  <trip id="veh006_192" depart="64026" from="9178721#3" to="-504456842" type="passenger"/>
  <trip id="veh006_193" depart="64903" from="1262057048#0" to="-238492234#0" type="passenger"/>
  <trip id="veh006_194" depart="65893" from="1092108127" to="240666074#0" type="passenger"/>
  <trip id="veh006_195" depart="67665" from="1064476622#0" to="39697113#3" type="passenger"/>
  <trip id="veh006_196" depart="61876" from="47386145" to="-52205556" type="passenger"/>
  <trip id="veh006_197" depart="68032" from="136014464#0" to="446640439" type="passenger"/>
  <trip id="veh006_198" depart="61596" from="958852841" to="1064476622#0" type="passenger"/>
  <trip id="veh006_199" depart="64764" from="504456844" to="47386145" type="passenger"/>
  <trip id="veh006_200" depart="66090" from="446640439" to="-226854874" type="passenger"/>
  <trip id="veh006_201" depart="67501" from="39658122#0" to="40784659#1" type="passenger"/>
  <trip id="veh006_202" depart="62353" from="238492234#0" to="39697113#3" type="passenger"/>
  <trip id="veh006_203" depart="68330" from="238492234#0" to="39838789#2" type="passenger"/>
  <trip id="veh006_204" depart="66319" from="958852841" to="49219226" type="passenger"/>
  <trip id="veh006_205" depart="63207" from="1235145933" to="1064816194" type="passenger"/>
  <trip id="veh006_206" depart="61924" from="-51296363" to="240666074#0" type="passenger"/>
  <trip id="veh006_207" depart="66121" from="237271809#4" to="-1387302975" type="passenger"/>
  <trip id="veh006_208" depart="67346" from="163764181#0" to="1262057043#2" type="passenger"/>
  <trip id="veh006_209" depart="67843" from="-51296363" to="958852841" type="passenger"/>
  <trip id="veh006_210" depart="68187" from="-51296363" to="1005394020#2" type="passenger"/>
  <trip id="veh006_211" depart="63079" from="12088962#10" to="-50383097#9" type="passenger"/>
  <trip id="veh006_212" depart="63634" from="163764181#0" to="1118804256#1" type="passenger"/>
  <trip id="veh006_213" depart="65424" from="9704194#7" to="-52205556" type="passenger"/>
  <trip id="veh006_214" depart="65314" from="504456844" to="-52205556" type="passenger"/>
  <trip id="veh006_215" depart="63725" from="47386145" to="1068144844" type="passenger"/>
  <trip id="veh006_216" depart="62724" from="-1225879469" to="-52205556" type="passenger"/>
  <trip id="veh006_217" depart="65282" from="457547879#4" to="39658122#0" type="passenger"/>
  <trip id="veh006_218" depart="64190" from="-1080217656#1" to="-1124366653" type="passenger"/>
  <trip id="veh006_219" depart="63712" from="446640439" to="47386145" type="passenger"/>
  <trip id="veh006_220" depart="62129" from="163764181#0" to="-1068139751" type="passenger"/>
  <trip id="veh006_221" depart="64713" from="-39750994#4" to="238492234#0" type="passenger"/>
  <trip id="veh006_222" depart="66107" from="-50371367#1" to="1235145933" type="passenger"/>
  <trip id="veh006_223" depart="66006" from="47386145" to="504456844" type="passenger"/>
  <trip id="veh006_224" depart="61712" from="-1124366653" to="1092372218" type="passenger"/>
  <trip id="veh006_225" depart="66176" from="-52205556" to="1262057048#0" type="passenger"/>
  <trip id="veh006_226" depart="62936" from="71293415#1" to="-1080217656#1" type="passenger"/>
  <trip id="veh006_227" depart="68079" from="1016015052" to="1005394020#2" type="passenger"/>
  <trip id="veh006_228" depart="65265" from="593755854" to="-1124366653" type="passenger"/>
  <trip id="veh006_229" depart="64148" from="143996571#1" to="85796876#1" type="passenger"/>
  <trip id="veh006_230" depart="68386" from="39658122#0" to="169004589#0" type="passenger"/>
  <trip id="veh006_231" depart="62141" from="-50383097#9" to="238492234#0" type="passenger"/>
  <trip id="veh006_232" depart="65967" from="-176637359#2" to="1067953247#1" type="passenger"/>
  <trip id="veh006_233" depart="63050" from="-176637359#2" to="237271809#4" type="passenger"/>
  <trip id="veh006_234" depart="61553" from="958852841" to="-39750994#4" type="passenger"/>
  <trip id="veh006_235" depart="65723" from="438516309#1" to="240666074#0" type="passenger"/>
  <trip id="veh006_236" depart="61600" from="446640439" to="237271809#4" type="passenger"/>
  <trip id="veh006_237" depart="68075" from="-40035992#5" to="446640439" type="passenger"/>
  <trip id="veh006_238" depart="61388" from="49171011#1" to="71293415#1" type="passenger"/>
  <trip id="veh006_239" depart="67947" from="12088962#10" to="9178721#3" type="passenger"/>
  <trip id="veh006_240" depart="68290" from="446640439" to="1005394020#2" type="passenger"/>
  <trip id="veh006_241" depart="67963" from="-220770272" to="49228821#1" type="passenger"/>
  <trip id="veh006_242" depart="62795" from="85796876#1" to="163764181#0" type="passenger"/>
  <trip id="veh006_243" depart="65654" from="163764181#0" to="1262057048#0" type="passenger"/>
  <trip id="veh006_244" depart="62995" from="1068144844" to="238492234#0" type="passenger"/>
  <trip id="veh006_245" depart="67192" from="-50383097#9" to="958852841" type="passenger"/>
  <trip id="veh006_246" depart="62202" from="-504456842" to="163764181#0" type="passenger"/>
  <trip id="veh006_247" depart="62894" from="9704194#7" to="35422924#4" type="passenger"/>
  <trip id="veh006_248" depart="67591" from="-52205556" to="9704194#7" type="passenger"/>
  <trip id="veh006_249" depart="66400" from="143996571#1" to="47386145" type="passenger"/>
  <trip id="veh006_250" depart="66445" from="1262057048#0" to="47386145" type="passenger"/>
  <trip id="veh006_251" depart="62985" from="30620777" to="-1387302975" type="passenger"/>
  <trip id="veh006_252" depart="61986" from="-126724514#0" to="-52205556" type="passenger"/>
  <trip id="veh006_253" depart="67254" from="-1225879469" to="-39750994#4" type="passenger"/>
  <trip id="veh006_254" depart="65603" from="39658122#0" to="504456844" type="passenger"/>
  <trip id="veh006_255" depart="61445" from="49228821#1" to="47281535" type="passenger"/>
  <trip id="veh006_256" depart="61475" from="593755854" to="39697113#3" type="passenger"/>
  <trip id="veh006_257" depart="62899" from="958852841" to="9178721#3" type="passenger"/>
  <trip id="veh006_258" depart="64432" from="-1124366653" to="71293415#1" type="passenger"/>
  <trip id="veh006_259" depart="66879" from="-39750994#4" to="71293415#1" type="passenger"/>
  <trip id="veh006_260" depart="63450" from="1005394020#2" to="49171011#1" type="passenger"/>
  <trip id="veh006_261" depart="67637" from="238492234#0" to="1235145933" type="passenger"/>
  <trip id="veh006_262" depart="67285" from="9178721#3" to="-39750994#4" type="passenger"/>
  <trip id="veh006_263" depart="65916" from="35422924#4" to="1005394019#0" type="passenger"/>
  <trip id="veh006_264" depart="67635" from="438516309#1" to="-40035904#1" type="passenger"/>
  <trip id="veh006_265" depart="65021" from="958852841" to="-1387302975" type="passenger"/>
  <trip id="veh006_266" depart="62137" from="163764181#0" to="50843170" type="passenger"/>
  <trip id="veh006_267" depart="65753" from="1235145933" to="446640439" type="passenger"/>
  <trip id="veh006_268" depart="65162" from="143996571#1" to="1235145933" type="passenger"/>
  <trip id="veh006_269" depart="62263" from="-50383097#9" to="39838789#2" type="passenger"/>
  <trip id="veh006_270" depart="64091" from="1235145933" to="-51296363" type="passenger"/>
  <trip id="veh006_271" depart="65927" from="1262057043#2" to="593755854" type="passenger"/>
  <trip id="veh006_272" depart="63685" from="136014464#0" to="-141172463#0" type="passenger"/>
  <trip id="veh006_273" depart="66537" from="1092372218" to="39658122#0" type="passenger"/>
  <trip id="veh006_274" depart="67586" from="136014464#0" to="1262057043#2" type="passenger"/>
  <trip id="veh006_275" depart="67686" from="238492234#0" to="-50371367#1" type="passenger"/>
  <trip id="veh006_276" depart="61710" from="136752699" to="1016015052" type="passenger"/>
  <trip id="veh006_277" depart="61610" from="-39750994#4" to="169004589#0" type="passenger"/>
  <trip id="veh006_278" depart="67929" from="-1387302975" to="74450559" type="passenger"/>
  <trip id="veh006_279" depart="63096" from="9704194#7" to="163764181#0" type="passenger"/>
  <trip id="veh006_280" depart="64522" from="504456844" to="1235145933" type="passenger"/>
  <trip id="veh006_281" depart="62864" from="163764181#0" to="446640439" type="passenger"/>
  <trip id="veh006_282" depart="62518" from="143996571#1" to="169004589#0" type="passenger"/>
  <trip id="veh006_283" depart="62399" from="39838789#2" to="1005394020#2" type="passenger"/>
  <trip id="veh006_284" depart="65815" from="-126724514#0" to="1262057048#0" type="passenger"/>
  <trip id="veh006_285" depart="63527" from="39697113#3" to="958852841" type="passenger"/>
  <trip id="veh006_286" depart="61386" from="958852841" to="143996571#1" type="passenger"/>
  <trip id="veh006_287" depart="67530" from="958852841" to="-126724514#0" type="passenger"/>
  <trip id="veh006_288" depart="62348" from="446640439" to="1235145933" type="passenger"/>
  <trip id="veh006_289" depart="61655" from="958852841" to="1068144844" type="passenger"/>
  <trip id="veh006_290" depart="64255" from="446640439" to="504456844" type="passenger"/>
  <trip id="veh006_291" depart="63811" from="30620777" to="958852841" type="passenger"/>
  <trip id="veh006_292" depart="68111" from="50843248" to="-1068139751" type="passenger"/>
  <trip id="veh006_293" depart="64127" from="-52205556" to="446640439" type="passenger"/>
  <trip id="veh006_294" depart="61904" from="1092108127" to="-39750994#4" type="passenger"/>
  <trip id="veh006_295" depart="66137" from="593755854" to="85796876#1" type="passenger"/>
  <trip id="veh006_296" depart="65284" from="438516309#1" to="50843248" type="passenger"/>
  <trip id="veh006_297" depart="65148" from="958852841" to="74450559" type="passenger"/>
  <trip id="veh006_298" depart="65869" from="958852841" to="457547879#4" type="passenger"/>
  <trip id="veh006_299" depart="65155" from="446640439" to="958852841" type="passenger"/>
  <trip id="veh006_300" depart="66254" from="-176637359#2" to="39697113#3" type="passenger"/>
  <trip id="veh006_301" depart="67444" from="-1080217656#1" to="39838789#2" type="passenger"/>
  <trip id="veh006_302" depart="65418" from="-1080217656#1" to="593755854" type="passenger"/>
  <trip id="veh006_303" depart="62052" from="49219226" to="39697113#3" type="passenger"/>
  <trip id="veh006_304" depart="62878" from="1016015052" to="958852841" type="passenger"/>
  <trip id="veh006_305" depart="66832" from="1118804256#1" to="39674883#1" type="passenger"/>
  <trip id="veh006_306" depart="63270" from="900390006#1" to="769245718" type="passenger"/>
  <trip id="veh006_307" depart="63725" from="39674883#1" to="900390006#1" type="passenger"/>
  <trip id="veh006_308" depart="67339" from="39658122#0" to="136014464#0" type="passenger"/>
  <trip id="veh006_309" depart="64006" from="-1225879469" to="163764181#0" type="passenger"/>
  <trip id="veh006_310" depart="62586" from="-39750994#4" to="504456844" type="passenger"/>
  <trip id="veh006_311" depart="65593" from="457547879#4" to="1235145933" type="passenger"/>
  <trip id="veh006_312" depart="63909" from="39674883#1" to="49171011#1" type="passenger"/>
  <trip id="veh006_313" depart="61359" from="136014464#0" to="-226855595#1" type="passenger"/>
  <trip id="veh006_314" depart="65902" from="-126724514#0" to="85796876#1" type="passenger"/>
  <trip id="veh006_315" depart="61923" from="39674883#1" to="71293415#1" type="passenger"/>
  <trip id="veh006_316" depart="64774" from="424580470#5" to="-504456842" type="passenger"/>
  <trip id="veh006_317" depart="67144" from="169004589#0" to="958852841" type="passenger"/>
  <trip id="veh006_318" depart="66875" from="1235145933" to="-863774952#1" type="passenger"/>
  <trip id="veh006_319" depart="64127" from="1005394020#2" to="169004589#0" type="passenger"/>
  <trip id="veh006_320" depart="63086" from="30620777" to="958852841" type="passenger"/>
  <trip id="veh006_321" depart="62483" from="1262057048#0" to="238492234#0" type="passenger"/>
  <trip id="veh006_322" depart="68134" from="-451728952#4" to="35422924#4" type="passenger"/>
  <trip id="veh006_323" depart="68397" from="40784659#1" to="163764181#0" type="passenger"/>
  <trip id="veh006_324" depart="65251" from="50843248" to="40784659#1" type="passenger"/>