<trips>
  <trip id="veh006_0" depart="67028" from="998773447#1" to="240640942#1" type="passenger"/>
  <trip id="veh006_1" depart="65339" from="998773447#1" to="666271191" type="passenger"/>
  <trip id="veh006_2" depart="62556" from="44472940#1" to="-33683398#2" type="passenger"/>
  <trip id="veh006_3" depart="66585" from="1363506394#4" to="1020246871" type="passenger"/>
  <trip id="veh006_4" depart="62986" from="240034070#0" to="50323222#1" type="passenger"/>
  <trip id="veh006_5" depart="65366" from="-33683398#2" to="47386111#1" type="passenger"/>
  <trip id="veh006_6" depart="61800" from="1363506394#4" to="1085107695" type="passenger"/>
  <trip id="veh006_7" depart="66707" from="12088974#3" to="240640942#1" type="passenger"/>
  <trip id="veh006_8" depart="66919" from="1363506394#4" to="240640942#1" type="passenger"/>
  <trip id="veh006_9" depart="66923" from="998773447#1" to="-769600704" type="passenger"/>
  <trip id="veh006_10" depart="63427" from="610738424#0" to="40784659#1" type="passenger"/>
  <trip id="veh006_11" depart="65878" from="1064799814" to="175760666" type="passenger"/>
  <trip id="veh006_12" depart="64086" from="177743535#0" to="50323222#1" type="passenger"/>
  <trip id="veh006_13" depart="64491" from="1119184635#1" to="44472940#0" type="passenger"/>
  <trip id="veh006_14" depart="66181" from="666271191" to="47283778#2" type="passenger"/>
  <trip id="veh006_15" depart="63567" from="900390006#1" to="1064853456" type="passenger"/>
  <trip id="veh006_16" depart="66908" from="47386111#1" to="446640439" type="passenger"/>
  <trip id="veh006_17" depart="63903" from="240034070#0" to="1363506394#4" type="passenger"/>
  <trip id="veh006_18" depart="67606" from="43763701#3" to="968332515#0" type="passenger"/>
  <trip id="veh006_19" depart="67602" from="40299122#2" to="-768805831#1" type="passenger"/>
  <trip id="veh006_20" depart="63792" from="1064853456" to="12088974#3" type="passenger"/>
  <trip id="veh006_21" depart="66800" from="175637233#0" to="446640439" type="passenger"/>
  <trip id="veh006_22" depart="66153" from="50323222#1" to="43763701#3" type="passenger"/>
  <trip id="veh006_23" depart="62779" from="240666074#4" to="-768805831#1" type="passenger"/>
  <trip id="veh006_24" depart="63026" from="43763701#3" to="177743535#0" type="passenger"/>
  <trip id="veh006_25" depart="62547" from="40784659#1" to="177743535#0" type="passenger"/>
  <trip id="veh006_26" depart="67972" from="1085107695" to="1363506394#4" type="passenger"/>
  <trip id="veh006_27" depart="66890" from="1119184635#1" to="-47279971" type="passenger"/>
  <trip id="veh006_28" depart="64409" from="72233381" to="47386145" type="passenger"/>
  <trip id="veh006_29" depart="67068" from="446640439" to="-768805831#1" type="passenger"/>
  <trip id="veh006_30" depart="65537" from="10632130" to="177743535#0" type="passenger"/>
  <trip id="veh006_31" depart="61420" from="610738423#1" to="50323222#1" type="passenger"/>
  <trip id="veh006_32" depart="66465" from="173471112" to="175637233#0" type="passenger"/>
  <trip id="veh006_33" depart="66509" from="610738424#0" to="177743535#0" type="passenger"/>
  <trip id="veh006_34" depart="65379" from="1020246871" to="593755854" type="passenger"/>
  <trip id="veh006_35" depart="64890" from="10632130" to="1119184638#0" type="passenger"/>
  <trip id="veh006_36" depart="62508" from="177743535#0" to="-1273359359#1" type="passenger"/>
  <trip id="veh006_37" depart="68223" from="1085107695" to="237271809#2" type="passenger"/>
  <trip id="veh006_38" depart="67001" from="1192417710" to="-10738871#0" type="passenger"/>
  <trip id="veh006_39" depart="61461" from="47267014#1" to="-1092108194" type="passenger"/>
  <trip id="veh006_40" depart="61496" from="68868377" to="998773447#1" type="passenger"/>
  <trip id="veh006_41" depart="63774" from="900390006#1" to="175760666" type="passenger"/>
  <trip id="veh006_42" depart="64656" from="177743535#0" to="68868377" type="passenger"/>
  <trip id="veh006_43" depart="65000" from="-1273359359#1" to="1068434254#0" type="passenger"/>
  <trip id="veh006_44" depart="66538" from="-70662723#0" to="-768805831#1" type="passenger"/>
  <trip id="veh006_45" depart="62274" from="50843196#0" to="44472940#1" type="passenger"/>
  <trip id="veh006_46" depart="62067" from="40784659#1" to="177743535#0" type="passenger"/>
  <trip id="veh006_47" depart="62790" from="240640942#1" to="240666074#4" type="passenger"/>
  <trip id="veh006_48" depart="64656" from="40784659#0" to="47386111#1" type="passenger"/>
  <trip id="veh006_49" depart="66039" from="237271809#2" to="50843198#3" type="passenger"/>
  <trip id="veh006_50" depart="65358" from="-769600704" to="-70662727#0" type="passenger"/>
  <trip id="veh006_51" depart="66252" from="175760666" to="900390006#1" type="passenger"/>
  <trip id="veh006_52" depart="62239" from="1363506394#4" to="177743535#0" type="passenger"/>
  <trip id="veh006_53" depart="64307" from="40784659#0" to="1326094907#0" type="passenger"/>
  <trip id="veh006_54" depart="65903" from="998773447#1" to="47386145" type="passenger"/>
  <trip id="veh006_55" depart="66609" from="-238219473" to="43763701#3" type="passenger"/>
  <trip id="veh006_56" depart="62245" from="610738423#1" to="1092600147#1" type="passenger"/>
  <trip id="veh006_57" depart="63005" from="175760666" to="1207401650" type="passenger"/>
  <trip id="veh006_58" depart="61486" from="446640439" to="240640942#1" type="passenger"/>
  <trip id="veh006_59" depart="63951" from="159538498#1" to="24465651#1" type="passenger"/>
  <trip id="veh006_60" depart="64140" from="47283778#2" to="44121335#0" type="passenger"/>
  <trip id="veh006_61" depart="66247" from="998773447#1" to="145007016" type="passenger"/>
  <trip id="veh006_62" depart="64001" from="1363506394#4" to="-40784652#0" type="passenger"/>
  <trip id="veh006_63" depart="65752" from="998773447#1" to="47386145" type="passenger"/>
  <trip id="veh006_64" depart="61534" from="44472940#1" to="177743535#0" type="passenger"/>
  <trip id="veh006_65" depart="66268" from="50843196#0" to="1092600147#1" type="passenger"/>
  <trip id="veh006_66" depart="61632" from="47386145" to="1092600147#1" type="passenger"/>
  <trip id="veh006_67" depart="67547" from="39659484" to="50843198#3" type="passenger"/>
  <trip id="veh006_68" depart="61532" from="1363506394#4" to="-70662727#0" type="passenger"/>
  <trip id="veh006_69" depart="62573" from="1207401650" to="159942190" type="passenger"/>
  <trip id="veh006_70" depart="62073" from="177743535#0" to="240034070#0" type="passenger"/>
  <trip id="veh006_71" depart="67456" from="-238219473" to="240640943#1" type="passenger"/>
  <trip id="veh006_72" depart="63281" from="998773447#1" to="1085107695" type="passenger"/>
  <trip id="veh006_73" depart="61795" from="-10632130" to="220775319" type="passenger"/>
  <trip id="veh006_74" depart="62655" from="446640439" to="47386111#1" type="passenger"/>
  <trip id="veh006_75" depart="64597" from="1192417710" to="159942190" type="passenger"/>
  <trip id="veh006_76" depart="67181" from="68868377" to="998773447#1" type="passenger"/>
  <trip id="veh006_77" depart="68028" from="610738424#0" to="1020246871" type="passenger"/>
  <trip id="veh006_78" depart="65189" from="10632130" to="1363506394#4" type="passenger"/>
  <trip id="veh006_79" depart="67330" from="47386145" to="1020246871" type="passenger"/>
  <trip id="veh006_80" depart="66812" from="593755854" to="-40784652#0" type="passenger"/>
  <trip id="veh006_81" depart="67886" from="145007016" to="-70662723#0" type="passenger"/>
  <trip id="veh006_82" depart="63250" from="177743535#0" to="-1092108194" type="passenger"/>
  <trip id="veh006_83" depart="64703" from="47386111#1" to="1192417710" type="passenger"/>
  <trip id="veh006_84" depart="65480" from="50323222#1" to="145007016" type="passenger"/>
  <trip id="veh006_85" depart="61857" from="1020246871" to="-1092108194" type="passenger"/>
  <trip id="veh006_86" depart="66096" from="145007016" to="240034070#0" type="passenger"/>
  <trip id="veh006_87" depart="68086" from="240007894#1" to="50843198#3" type="passenger"/>
  <trip id="veh006_88" depart="64568" from="177743535#0" to="220775319" type="passenger"/>
  <trip id="veh006_89" depart="63825" from="44472940#0" to="40784659#1" type="passenger"/>
  <trip id="veh006_90" depart="66561" from="-40784652#0" to="-238219473" type="passenger"/>
  <trip id="veh006_91" depart="64368" from="44472940#0" to="998773447#1" type="passenger"/>
  <trip id="veh006_92" depart="61687" from="47283778#2" to="50843198#3" type="passenger"/>
  <trip id="veh006_93" depart="62040" from="-769600704" to="50323222#1" type="passenger"/>
  <trip id="veh006_94" depart="64598" from="159942190" to="40784659#0" type="passenger"/>
  <trip id="veh006_95" depart="63719" from="10632130" to="1363506394#4" type="passenger"/>
  <trip id="veh006_96" depart="66675" from="610738423#1" to="1363506394#4" type="passenger"/>
  <trip id="veh006_97" depart="65096" from="-768805831#1" to="-70662723#0" type="passenger"/>
  <trip id="veh006_98" depart="63157" from="50843198#3" to="50843196#0" type="passenger"/>
  <trip id="veh006_99" depart="64015" from="998773447#1" to="175760666" type="passenger"/>
  <trip id="veh006_100" depart="68367" from="998773447#1" to="593755854" type="passenger"/>
  <trip id="veh006_101" depart="67197" from="1091984826#0" to="-49073765#0" type="passenger"/>
  <trip id="veh006_102" depart="61709" from="220775319" to="1363506394#4" type="passenger"/>
  <trip id="veh006_103" depart="66702" from="1207401650" to="40784659#0" type="passenger"/>
  <trip id="veh006_104" depart="61522" from="1068434254#0" to="68868377" type="passenger"/>
  <trip id="veh006_105" depart="67753" from="43763701#3" to="240640942#1" type="passenger"/>
  <trip id="veh006_106" depart="64329" from="610738423#1" to="-226907342#1" type="passenger"/>
  <trip id="veh006_107" depart="67801" from="431876176" to="9704194#4" type="passenger"/>
  <trip id="veh006_108" depart="61433" from="47386145" to="-33683398#2" type="passenger"/>
  <trip id="veh006_109" depart="61882" from="10632130" to="1064853456" type="passenger"/>
  <trip id="veh006_110" depart="64436" from="177743535#0" to="44472940#0" type="passenger"/>
  <trip id="veh006_111" depart="67922" from="1326094907#0" to="-232359138" type="passenger"/>
  <trip id="veh006_112" depart="65220" from="1064853456" to="-72083131" type="passenger"/>
  <trip id="veh006_113" depart="65066" from="1092600147#1" to="-33683398#2" type="passenger"/>
  <trip id="veh006_114" depart="65238" from="900390006#1" to="136232037#0" type="passenger"/>
  <trip id="veh006_115" depart="65484" from="47386145" to="177743535#0" type="passenger"/>
  <trip id="veh006_116" depart="65228" from="-33683398#2" to="610738424#0" type="passenger"/>
  <trip id="veh006_117" depart="66200" from="-10632130" to="44121335#0" type="passenger"/>
  <trip id="veh006_118" depart="62184" from="-240666072#0" to="240034070#0" type="passenger"/>
  <trip id="veh006_119" depart="67614" from="-33683398#2" to="1363506394#4" type="passenger"/>
  <trip id="veh006_120" depart="62109" from="-70662723#0" to="760475718" type="passenger"/>
  <trip id="veh006_121" depart="66541" from="1207401650" to="-33683398#2" type="passenger"/>
  <trip id="veh006_122" depart="67830" from="159538498#1" to="47386111#1" type="passenger"/>
  <trip id="veh006_123" depart="64965" from="240640942#1" to="50323222#1" type="passenger"/>
  <trip id="veh006_124" depart="67309" from="593755854" to="177743535#0" type="passenger"/>
  <trip id="veh006_125" depart="63188" from="43763701#3" to="-10632130" type="passenger"/>
  <trip id="veh006_126" depart="63163" from="-1092108194" to="900390006#1" type="passenger"/>
  <trip id="veh006_127" depart="62258" from="1092600147#1" to="998773447#1" type="passenger"/>
  <trip id="veh006_128" depart="66270" from="24465651#1" to="175760666" type="passenger"/>
  <trip id="veh006_129" depart="61845" from="-10632130" to="240640942#1" type="passenger"/>
  <trip id="veh006_130" depart="66296" from="-40784652#0" to="1020246871" type="passenger"/>
  <trip id="veh006_131" depart="62912" from="1064853456" to="-10738871#0" type="passenger"/>
  <trip id="veh006_132" depart="61764" from="-769600704" to="50843196#0" type="passenger"/>
  <trip id="veh006_133" depart="66468" from="177743535#0" to="159942190" type="passenger"/>
  <trip id="veh006_134" depart="68225" from="-769600704" to="40299122#2" type="passenger"/>
  <trip id="veh006_135" depart="62528" from="175637233#0" to="240640942#1" type="passenger"/>
  <trip id="veh006_136" depart="64545" from="50843196#0" to="446640439" type="passenger"/>
  <trip id="veh006_137" depart="65163" from="159942190" to="1085107695" type="passenger"/>
  <trip id="veh006_138" depart="67491" from="-769600704" to="240034070#0" type="passenger"/>
  <trip id="veh006_139" depart="67741" from="12088974#3" to="240640942#1" type="passenger"/>
  <trip id="veh006_140" depart="66430" from="1085107695" to="998773447#1" type="passenger"/>
  <trip id="veh006_141" depart="67237" from="1064853456" to="159942190" type="passenger"/>
  <trip id="veh006_142" depart="64410" from="237271809#3" to="47267014#1" type="passenger"/>
  <trip id="veh006_143" depart="66992" from="1092600147#1" to="-70662727#0" type="passenger"/>
  <trip id="veh006_144" depart="67298" from="240034070#0" to="446640439" type="passenger"/>
  <trip id="veh006_145" depart="65990" from="1326094907#0" to="240007894#1" type="passenger"/>
  <trip id="veh006_146" depart="66444" from="666271191" to="610738424#0" type="passenger"/>
  <trip id="veh006_147" depart="62210" from="50323222#1" to="-238219473" type="passenger"/>
  <trip id="veh006_148" depart="67161" from="610738423#1" to="-33683398#2" type="passenger"/>
  <trip id="veh006_149" depart="63689" from="10632130" to="-1092108194" type="passenger"/>
  <trip id="veh006_150" depart="64617" from="177743535#0" to="175760666" type="passenger"/>
  <trip id="veh006_151" depart="65507" from="159942190" to="-40784652#0" type="passenger"/>
  <trip id="veh006_152" depart="66566" from="237271809#2" to="72233381" type="passenger"/>
  <trip id="veh006_153" depart="63362" from="159942190" to="-10738871#0" type="passenger"/>
  <trip id="veh006_154" depart="66700" from="-226907342#1" to="431876176" type="passenger"/>
  <trip id="veh006_155" depart="63539" from="240007894#1" to="-33683398#2" type="passenger"/>
  <trip id="veh006_156" depart="64463" from="50323222#1" to="-768805831#1" type="passenger"/>
  <trip id="veh006_157" depart="67853" from="50323222#1" to="177743535#0" type="passenger"/>
  <trip id="veh006_158" depart="67282" from="-47279971" to="10629709#0" type="passenger"/>
  <trip id="veh006_159" depart="61916" from="240007894#1" to="610738424#0" type="passenger"/>
  <trip id="veh006_160" depart="64525" from="1064853456" to="10632130" type="passenger"/>
  <trip id="veh006_161" depart="63079" from="24465651#1" to="47386111#1" type="passenger"/>
  <trip id="veh006_162" depart="65494" from="159538498#1" to="1020246871" type="passenger"/>
  <trip id="veh006_163" depart="65765" from="-769600704" to="40784659#1" type="passenger"/>
  <trip id="veh006_164" depart="67755" from="666271191" to="-50323229" type="passenger"/>
  <trip id="veh006_165" depart="68296" from="240034070#0" to="47386145" type="passenger"/>
  <trip id="veh006_166" depart="63059" from="666271191" to="610738423#1" type="passenger"/>
  <trip id="veh006_167" depart="67753" from="-70662727#0" to="44472940#0" type="passenger"/>
  <trip id="veh006_168" depart="63035" from="1326094907#0" to="-768805831#1" type="passenger"/>
  <trip id="veh006_169" depart="63241" from="50325553" to="-50323229" type="passenger"/>
  <trip id="veh006_170" depart="67516" from="1020246871" to="175760666" type="passenger"/>
  <trip id="veh006_171" depart="63665" from="1207401650" to="1326094907#0" type="passenger"/>
  <trip id="veh006_172" depart="61494" from="177743535#0" to="240034070#0" type="passenger"/>
  <trip id="veh006_173" depart="64791" from="159942190" to="50323222#1" type="passenger"/>
  <trip id="veh006_174" depart="68029" from="159942190" to="-33683398#2" type="passenger"/>
  <trip id="veh006_175" depart="65034" from="-70662727#0" to="177743535#0" type="passenger"/>
  <trip id="veh006_176" depart="62837" from="237271809#2" to="1207401650" type="passenger"/>
  <trip id="veh006_177" depart="67621" from="-1092108194" to="240007894#1" type="passenger"/>
  <trip id="veh006_178" depart="66474" from="177743535#0" to="1363506394#4" type="passenger"/>
  <trip id="veh006_179" depart="66040" from="47386145" to="1020246871" type="passenger"/>
  <trip id="veh006_180" depart="63504" from="9704194#4" to="1207401650" type="passenger"/>
  <trip id="veh006_181" depart="66640" from="175760666" to="68868377" type="passenger"/>
  <trip id="veh006_182" depart="65228" from="237271809#2" to="9704194#4" type="passenger"/>
  <trip id="veh006_183" depart="65815" from="446640439" to="47386145" type="passenger"/>
  <trip id="veh006_184" depart="65218" from="47386145" to="-72083131" type="passenger"/>
  <trip id="veh006_185" depart="61793" from="-70662723#0" to="12088974#3" type="passenger"/>
  <trip id="veh006_186" depart="67737" from="-1273359359#1" to="-33683398#2" type="passenger"/>
  <trip id="veh006_187" depart="66329" from="237271809#3" to="24465651#1" type="passenger"/>
  <trip id="veh006_188" depart="68387" from="1085107695" to="159942190" type="passenger"/>
  <trip id="veh006_189" depart="61233" from="-226907342#1" to="-1092108194" type="passenger"/>
  <trip id="veh006_190" depart="63655" from="9704194#4" to="998773447#1" type="passenger"/>
  <trip id="veh006_191" depart="65075" from="47386145" to="159942190" type="passenger"/>
  <trip id="veh006_192" depart="67585" from="1092600147#1" to="237271809#3" type="passenger"/>
  <trip id="veh006_193" depart="67049" from="-1092108194" to="10632130" type="passenger"/>
  <trip id="veh006_194" depart="62700" from="240640942#1" to="40784659#1" type="passenger"/>
  <trip id="veh006_195" depart="66286" from="50843198#3" to="-50323229" type="passenger"/>
  <trip id="veh006_196" depart="62320" from="-10738871#0" to="24623782#1" type="passenger"/>
  <trip id="veh006_197" depart="62645" from="1363506394#4" to="50843200#1" type="passenger"/>
  <trip id="veh006_198" depart="66061" from="441994803" to="40784659#1" type="passenger"/>
  <trip id="veh006_199" depart="66287" from="-50323229" to="50843196#0" type="passenger"/>
  <trip id="veh006_200" depart="63406" from="-863774952#0" to="72233381" type="passenger"/>
  <trip id="veh006_201" depart="64560" from="900390006#1" to="593755854" type="passenger"/>
  <trip id="veh006_202" depart="64868" from="10632130" to="-768805831#1" type="passenger"/>
  <trip id="veh006_203" depart="63322" from="50323222#1" to="240640942#1" type="passenger"/>
  <trip id="veh006_204" depart="62500" from="12088974#3" to="10632130" type="passenger"/>
  <trip id="veh006_205" depart="66319" from="220775319" to="1192417710" type="passenger"/>
  <trip id="veh006_206" depart="63207" from="47386111#1" to="900390006#1" type="passenger"/>
  <trip id="veh006_207" depart="61924" from="50323222#1" to="-1092108194" type="passenger"/>
  <trip id="veh006_208" depart="66121" from="666271191" to="50325553" type="passenger"/>
  <trip id="veh006_209" depart="67346" from="240034070#0" to="-768805831#1" type="passenger"/>
  <trip id="veh006_210" depart="67843" from="50323222#1" to="220775319" type="passenger"/>
  <trip id="veh006_211" depart="68187" from="50323222#1" to="72233381" type="passenger"/>
  <trip id="veh006_212" depart="63079" from="-240666072#0" to="-70662727#0" type="passenger"/>
  <trip id="veh006_213" depart="63634" from="1326094907#0" to="24623782#1" type="passenger"/>
  <trip id="veh006_214" depart="65424" from="68868377" to="240640942#1" type="passenger"/>
  <trip id="veh006_215" depart="66899" from="240640942#1" to="47386145" type="passenger"/>
  <trip id="veh006_216" depart="67722" from="-240666072#0" to="-70662723#0" type="passenger"/>
  <trip id="veh006_217" depart="65990" from="240640942#1" to="159538498#1" type="passenger"/>
  <trip id="veh006_218" depart="67440" from="50843196#0" to="47386145" type="passenger"/>
  <trip id="veh006_219" depart="64416" from="39659484" to="137220971" type="passenger"/>
  <trip id="veh006_220" depart="64690" from="47386145" to="-70662723#0" type="passenger"/>
  <trip id="veh006_221" depart="67242" from="40784659#1" to="177743535#0" type="passenger"/>
  <trip id="veh006_222" depart="62917" from="1085107695" to="177743535#0" type="passenger"/>
  <trip id="veh006_223" depart="65245" from="610738423#1" to="1092600147#1" type="passenger"/>
  <trip id="veh006_224" depart="63043" from="666271191" to="1020246871" type="passenger"/>
  <trip id="veh006_225" depart="62288" from="900386124#0" to="240034070#0" type="passenger"/>
  <trip id="veh006_226" depart="64254" from="1068434254#0" to="47386145" type="passenger"/>
  <trip id="veh006_227" depart="62773" from="10632130" to="-70662727#0" type="passenger"/>
  <trip id="veh006_228" depart="66007" from="10629709#0" to="1064799814" type="passenger"/>
  <trip id="veh006_229" depart="67910" from="44472940#1" to="1192417710" type="passenger"/>
  <trip id="veh006_230" depart="61596" from="177743535#0" to="50323222#1" type="passenger"/>
  <trip id="veh006_231" depart="64412" from="446640439" to="44472940#1" type="passenger"/>
  <trip id="veh006_232" depart="67092" from="47386145" to="-70662723#0" type="passenger"/>
  <trip id="veh006_233" depart="64734" from="9704194#4" to="-10632130" type="passenger"/>
  <trip id="veh006_234" depart="67794" from="666271191" to="39659484" type="passenger"/>
  <trip id="veh006_235" depart="61237" from="-33683398#2" to="50843196#0" type="passenger"/>
  <trip id="veh006_236" depart="66048" from="-1092108194" to="441994803" type="passenger"/>
  <trip id="veh006_237" depart="67092" from="237271809#2" to="50843196#0" type="passenger"/>
  <trip id="veh006_238" depart="67128" from="47386111#1" to="40784659#1" type="passenger"/>
  <trip id="veh006_239" depart="64270" from="1064853456" to="173471112" type="passenger"/>
  <trip id="veh006_240" depart="61628" from="237271809#2" to="40784659#0" type="passenger"/>
  <trip id="veh006_241" depart="61655" from="1119184638#0" to="10632130" type="passenger"/>
  <trip id="veh006_242" depart="63969" from="50843200#1" to="40784659#0" type="passenger"/>
  <trip id="veh006_243" depart="62078" from="240034070#0" to="177743535#0" type="passenger"/>
  <trip id="veh006_244" depart="65001" from="1119184635#1" to="50843198#3" type="passenger"/>
  <trip id="veh006_245" depart="64422" from="-72083131" to="159942190" type="passenger"/>
  <trip id="veh006_246" depart="62627" from="159942190" to="1064853456" type="passenger"/>
  <trip id="veh006_247" depart="64485" from="50843196#0" to="47386145" type="passenger"/>
  <trip id="veh006_248" depart="62271" from="1326094907#0" to="1119184638#0" type="passenger"/>
  <trip id="veh006_249" depart="67984" from="47386111#1" to="175760666" type="passenger"/>
  <trip id="veh006_250" depart="66400" from="43763701#3" to="47283778#2" type="passenger"/>
  <trip id="veh006_251" depart="66445" from="159942190" to="47386145" type="passenger"/>
  <trip id="veh006_252" depart="62985" from="-226907342#1" to="50325553" type="passenger"/>
  <trip id="veh006_253" depart="61986" from="593755854" to="240640942#1" type="passenger"/>
  <trip id="veh006_254" depart="67254" from="50843198#3" to="-33683398#2" type="passenger"/>
  <trip id="veh006_255" depart="65603" from="50843196#0" to="1363506394#4" type="passenger"/>
  <trip id="veh006_256" depart="61445" from="50843200#1" to="40784659#0" type="passenger"/>
  <trip id="veh006_257" depart="61475" from="446640439" to="50323222#1" type="passenger"/>
  <trip id="veh006_258" depart="62899" from="220775319" to="237271809#2" type="passenger"/>
  <trip id="veh006_259" depart="64432" from="1085107695" to="1064853456" type="passenger"/>
  <trip id="veh006_260" depart="66879" from="-33683398#2" to="1064853456" type="passenger"/>
  <trip id="veh006_261" depart="63450" from="1207401650" to="-768805831#1" type="passenger"/>
  <trip id="veh006_262" depart="67637" from="177743535#0" to="47386111#1" type="passenger"/>
  <trip id="veh006_263" depart="67285" from="237271809#2" to="-33683398#2" type="passenger"/>
  <trip id="veh006_264" depart="65916" from="177743535#0" to="72233381" type="passenger"/>
  <trip id="veh006_265" depart="67635" from="40140141#0" to="10629709#0" type="passenger"/>
  <trip id="veh006_266" depart="65021" from="-70662723#0" to="50325553" type="passenger"/>
  <trip id="veh006_267" depart="62137" from="1326094907#0" to="240640943#1" type="passenger"/>
  <trip id="veh006_268" depart="65753" from="47386111#1" to="998773447#1" type="passenger"/>
  <trip id="veh006_269" depart="65162" from="40784659#1" to="47386111#1" type="passenger"/>
  <trip id="veh006_270" depart="62263" from="-70662727#0" to="40299122#2" type="passenger"/>
  <trip id="veh006_271" depart="64091" from="47386111#1" to="50323222#1" type="passenger"/>
  <trip id="veh006_272" depart="65927" from="237271809#2" to="-232359138" type="passenger"/>
  <trip id="veh006_273" depart="63685" from="-10632130" to="-70662727#0" type="passenger"/>
  <trip id="veh006_274" depart="66537" from="-1273359359#1" to="50843196#0" type="passenger"/>
  <trip id="veh006_275" depart="67586" from="10632130" to="-768805831#1" type="passenger"/>
  <trip id="veh006_276" depart="67686" from="177743535#0" to="47267014#1" type="passenger"/>
  <trip id="veh006_277" depart="61710" from="1092600147#1" to="44472940#1" type="passenger"/>
  <trip id="veh006_278" depart="61610" from="-33683398#2" to="237271809#3" type="passenger"/>
  <trip id="veh006_279" depart="67929" from="50325553" to="177743535#0" type="passenger"/>
  <trip id="veh006_280" depart="63096" from="68868377" to="1326094907#0" type="passenger"/>
  <trip id="veh006_281" depart="64522" from="1363506394#4" to="446640439" type="passenger"/>
  <trip id="veh006_282" depart="62864" from="240640942#1" to="47386145" type="passenger"/>
  <trip id="veh006_283" depart="62518" from="40784659#0" to="237271809#3" type="passenger"/>
  <trip id="veh006_284" depart="62399" from="40299122#2" to="1119184638#0" type="passenger"/>
  <trip id="veh006_285" depart="65815" from="593755854" to="159942190" type="passenger"/>
  <trip id="veh006_286" depart="63527" from="1091984826#0" to="137220971" type="passenger"/>
  <trip id="veh006_287" depart="61386" from="-70662723#0" to="40784659#0" type="passenger"/>
  <trip id="veh006_288" depart="67530" from="220775319" to="593755854" type="passenger"/>
  <trip id="veh006_289" depart="62348" from="441994803" to="446640439" type="passenger"/>
  <trip id="veh006_290" depart="61655" from="220775319" to="43763701#3" type="passenger"/>
  <trip id="veh006_291" depart="64255" from="998773447#1" to="240640942#1" type="passenger"/>
  <trip id="veh006_292" depart="63811" from="-226907342#1" to="-70662723#0" type="passenger"/>
  <trip id="veh006_293" depart="68111" from="173471112" to="40784659#1" type="passenger"/>
  <trip id="veh006_294" depart="64127" from="240640942#1" to="441994803" type="passenger"/>
  <trip id="veh006_295" depart="61904" from="159538498#1" to="159942190" type="passenger"/>
  <trip id="veh006_296" depart="66137" from="-232359138" to="1324706272" type="passenger"/>
  <trip id="veh006_297" depart="65284" from="40140141#0" to="173471112" type="passenger"/>
  <trip id="veh006_298" depart="65148" from="610738424#0" to="177743535#0" type="passenger"/>
  <trip id="veh006_299" depart="65869" from="610738424#0" to="1020246871" type="passenger"/>
  <trip id="veh006_300" depart="65155" from="998773447#1" to="220775319" type="passenger"/>
  <trip id="veh006_301" depart="66254" from="240007894#1" to="1091984826#0" type="passenger"/>
  <trip id="veh006_302" depart="67444" from="24465651#1" to="40299122#2" type="passenger"/>
  <trip id="veh006_303" depart="65418" from="24465651#1" to="-232359138" type="passenger"/>
  <trip id="veh006_304" depart="62052" from="145007016" to="50323222#1" type="passenger"/>
  <trip id="veh006_305" depart="62878" from="159538498#1" to="610738424#0" type="passenger"/>
  <trip id="veh006_306" depart="66832" from="760475718" to="175760666" type="passenger"/>
  <trip id="veh006_307" depart="63270" from="1068434254#0" to="-1092108194" type="passenger"/>
  <trip id="veh006_308" depart="63725" from="175760666" to="39659484" type="passenger"/>
  <trip id="veh006_309" depart="67339" from="50843196#0" to="10632130" type="passenger"/>
  <trip id="veh006_310" depart="64006" from="50843198#3" to="240034070#0" type="passenger"/>
  <trip id="veh006_311" depart="62586" from="-33683398#2" to="1363506394#4" type="passenger"/>
  <trip id="veh006_312" depart="65593" from="1020246871" to="47386111#1" type="passenger"/>
  <trip id="veh006_313" depart="63909" from="175760666" to="-33683398#2" type="passenger"/>
  <trip id="veh006_314" depart="61359" from="10632130" to="240666074#4" type="passenger"/>
  <trip id="veh006_315" depart="65902" from="593755854" to="610738423#1" type="passenger"/>
  <trip id="veh006_316" depart="61923" from="175760666" to="1064853456" type="passenger"/>
  <trip id="veh006_317" depart="64774" from="1324706272" to="44472940#0" type="passenger"/>
  <trip id="veh006_318" depart="63952" from="-10738871#0" to="-49073765#0" type="passenger"/>
  <trip id="veh006_319" depart="66875" from="47386111#1" to="760475718" type="passenger"/>
  <trip id="veh006_320" depart="64127" from="1207401650" to="237271809#3" type="passenger"/>
  <trip id="veh006_321" depart="63086" from="1085107695" to="610738424#0" type="passenger"/>
  <trip id="veh006_322" depart="62483" from="159942190" to="-769600704" type="passenger"/>
  <trip id="veh006_323" depart="68134" from="1207401650" to="177743535#0" type="passenger"/>
  <trip id="veh006_324" depart="68397" from="-40784652#0" to="240640942#1" type="passenger"/>