<trips>
  <trip id="veh003_0" depart="61870" from="900390006#1" to="24623782#1" type="passenger"/>
  <trip id="veh003_1" depart="65167" from="610738423#1" to="175760666" type="passenger"/>
  <trip id="veh003_2" depart="62164" from="175760666" to="431876176" type="passenger"/>
  <trip id="veh003_3" depart="66519" from="1092600147#1" to="-40784652#0" type="passenger"/>
  <trip id="veh003_4" depart="62306" from="41866489#1" to="50323222#1" type="passenger"/>
  <trip id="veh003_5" depart="62462" from="900390006#1" to="177743535#0" type="passenger"/>
  <trip id="veh003_6" depart="67076" from="-226907342#1" to="47283778#2" type="passenger"/>
  <trip id="veh003_7" depart="62369" from="40299122#2" to="1091984826#0" type="passenger"/>
  <trip id="veh003_8" depart="62610" from="-49073765#0" to="177743535#0" type="passenger"/>
  <trip id="veh003_9" depart="67140" from="610738424#0" to="227960847#0" type="passenger"/>
  <trip id="veh003_10" depart="61935" from="1092600147#1" to="1326094907#0" type="passenger"/>
  <trip id="veh003_11" depart="67621" from="175760666" to="610738424#0" type="passenger"/>
  <trip id="veh003_12" depart="67309" from="-70662727#0" to="10632130" type="passenger"/>
  <trip id="veh003_13" depart="66286" from="998773447#1" to="50323222#1" type="passenger"/>
  <trip id="veh003_14" depart="66059" from="-47279971" to="50323222#1" type="passenger"/>
  <trip id="veh003_15" depart="64261" from="968332515#0" to="-863774952#0" type="passenger"/>
  <trip id="veh003_16" depart="66331" from="177743535#0" to="220775319" type="passenger"/>
  <trip id="veh003_17" depart="67028" from="237271809#2" to="-1092108194" type="passenger"/>
  <trip id="veh003_18" depart="64595" from="1091984826#0" to="610738423#1" type="passenger"/>
  <trip id="veh003_19" depart="65741" from="-70662727#0" to="446640439" type="passenger"/>
  <trip id="veh003_20" depart="65420" from="-1273359359#1" to="-70662727#0" type="passenger"/>
  <trip id="veh003_21" depart="68234" from="1091984826#0" to="136232037#0" type="passenger"/>
  <trip id="veh003_22" depart="67521" from="998773447#1" to="50323222#1" type="passenger"/>
  <trip id="veh003_23" depart="62698" from="1324706272" to="610738423#1" type="passenger"/>
  <trip id="veh003_24" depart="64486" from="175760666" to="900390006#1" type="passenger"/>
  <trip id="veh003_25" depart="66312" from="-769600704" to="240034070#0" type="passenger"/>
  <trip id="veh003_26" depart="66273" from="177743535#0" to="159942190" type="passenger"/>
  <trip id="veh003_27" depart="63898" from="900390006#1" to="1119184638#0" type="passenger"/>
  <trip id="veh003_28" depart="66340" from="900390006#1" to="-1092108194" type="passenger"/>
  <trip id="veh003_29" depart="65245" from="47386145" to="968332515#0" type="passenger"/>
  <trip id="veh003_30" depart="66095" from="173471112" to="240007894#1" type="passenger"/>
  <trip id="veh003_31" depart="61978" from="1092600147#1" to="47283778#2" type="passenger"/>
  <trip id="veh003_32" depart="61716" from="44472940#0" to="1085107695" type="passenger"/>
  <trip id="veh003_33" depart="62283" from="177743535#0" to="50843198#3" type="passenger"/>
  <trip id="veh003_34" depart="62540" from="24465651#1" to="666271191" type="passenger"/>
  <trip id="veh003_35" depart="67382" from="50843200#1" to="237271809#3" type="passenger"/>
  <trip id="veh003_36" depart="64385" from="159942190" to="-40784652#0" type="passenger"/>
  <trip id="veh003_37" depart="67479" from="50323222#1" to="900390006#1" type="passenger"/>
  <trip id="veh003_38" depart="67015" from="68868377" to="-70662727#0" type="passenger"/>
  <trip id="veh003_39" depart="63830" from="47386145" to="136232037#0" type="passenger"/>
  <trip id="veh003_40" depart="66868" from="-232359138" to="40784659#1" type="passenger"/>
  <trip id="veh003_41" depart="64787" from="9704194#4" to="610738424#0" type="passenger"/>
  <trip id="veh003_42" depart="64409" from="1192417710" to="1085107695" type="passenger"/>
  <trip id="veh003_43" depart="61208" from="177743535#0" to="998773447#1" type="passenger"/>
  <trip id="veh003_44" depart="68307" from="-10738871#0" to="-232359138" type="passenger"/>
  <trip id="veh003_45" depart="67797" from="-40784652#0" to="43763701#3" type="passenger"/>
  <trip id="veh003_46" depart="65906" from="446640439" to="50325553" type="passenger"/>
  <trip id="veh003_47" depart="66289" from="39659484" to="50843196#0" type="passenger"/>
  <trip id="veh003_48" depart="63511" from="237271809#2" to="47386111#1" type="passenger"/>
  <trip id="veh003_49" depart="67779" from="-47279971" to="-769600704" type="passenger"/>
  <trip id="veh003_50" depart="66063" from="47386145" to="237271809#3" type="passenger"/>
  <trip id="veh003_51" depart="66602" from="50325553" to="-768805831#1" type="passenger"/>
  <trip id="veh003_52" depart="65834" from="-240666072#0" to="177743535#0" type="passenger"/>
  <trip id="veh003_53" depart="64324" from="50843196#0" to="-1092108194" type="passenger"/>
  <trip id="veh003_54" depart="66900" from="50843198#3" to="137220971" type="passenger"/>
  <trip id="veh003_55" depart="62410" from="1064799814" to="40784659#1" type="passenger"/>
  <trip id="veh003_56" depart="64528" from="-70662727#0" to="1085107695" type="passenger"/>
  <trip id="veh003_57" depart="61747" from="610738424#0" to="240640942#1" type="passenger"/>
  <trip id="veh003_58" depart="64553" from="-232359138" to="237271809#2" type="passenger"/>
  <trip id="veh003_59" depart="68125" from="-72083131" to="1020246871" type="passenger"/>
  <trip id="veh003_60" depart="66330" from="10629709#0" to="968332515#0" type="passenger"/>
  <trip id="veh003_61" depart="61874" from="-33683398#2" to="-1092108194" type="passenger"/>
  <trip id="veh003_62" depart="66560" from="159942190" to="24465651#1" type="passenger"/>
  <trip id="veh003_63" depart="67808" from="-70662723#0" to="50323222#1" type="passenger"/>
  <trip id="veh003_64" depart="62394" from="-50323229" to="50323222#1" type="passenger"/>
  <trip id="veh003_65" depart="64472" from="50323222#1" to="-33683398#2" type="passenger"/>
  <trip id="veh003_66" depart="64326" from="446640439" to="177743535#0" type="passenger"/>
  <trip id="veh003_67" depart="61991" from="39659484" to="-226907342#1" type="passenger"/>
  <trip id="veh003_68" depart="61599" from="998773447#1" to="47283778#2" type="passenger"/>
  <trip id="veh003_69" depart="63904" from="1091984826#0" to="441994803" type="passenger"/>
  <trip id="veh003_70" depart="65318" from="1119184638#0" to="50323222#1" type="passenger"/>
  <trip id="veh003_71" depart="61296" from="1064799814" to="900390006#1" type="passenger"/>
  <trip id="veh003_72" depart="62230" from="-47279971" to="177743535#0" type="passenger"/>
  <trip id="veh003_73" depart="67228" from="24623782#1" to="431876176" type="passenger"/>
  <trip id="veh003_74" depart="66602" from="1326094907#0" to="177743535#0" type="passenger"/>
  <trip id="veh003_75" depart="68295" from="593755854" to="998773447#1" type="passenger"/>
  <trip id="veh003_76" depart="62080" from="-40784652#0" to="-240666072#0" type="passenger"/>
  <trip id="veh003_77" depart="64625" from="50843200#1" to="446640439" type="passenger"/>
  <trip id="veh003_78" depart="63958" from="220775319" to="-769600704" type="passenger"/>
  <trip id="veh003_79" depart="62355" from="10632130" to="177743535#0" type="passenger"/>
  <trip id="veh003_80" depart="68175" from="9704194#4" to="-33683398#2" type="passenger"/>
  <trip id="veh003_81" depart="66891" from="47386145" to="50323222#1" type="passenger"/>
  <trip id="veh003_82" depart="62653" from="-33683398#2" to="159538498#1" type="passenger"/>
  <trip id="veh003_83" depart="61387" from="10632130" to="50323222#1" type="passenger"/>
  <trip id="veh003_84" depart="63129" from="227960847#0" to="240034070#0" type="passenger"/>
  <trip id="veh003_85" depart="65292" from="-232359138" to="-33683398#2" type="passenger"/>
  <trip id="veh003_86" depart="62297" from="47386145" to="1119184638#0" type="passenger"/>
  <trip id="veh003_87" depart="63606" from="1064853456" to="610738424#0" type="passenger"/>
  <trip id="veh003_88" depart="62499" from="446640439" to="159538498#1" type="passenger"/>
  <trip id="veh003_89" depart="65092" from="998773447#1" to="50843196#0" type="passenger"/>
  <trip id="veh003_90" depart="65557" from="-47279971" to="50323222#1" type="passenger"/>
  <trip id="veh003_91" depart="63965" from="-33683398#2" to="-72083131" type="passenger"/>
  <trip id="veh003_92" depart="62003" from="446640439" to="1324706272" type="passenger"/>
  <trip id="veh003_93" depart="62074" from="44472940#0" to="1363506394#4" type="passenger"/>
  <trip id="veh003_94" depart="67237" from="40784659#1" to="68868377" type="passenger"/>
  <trip id="veh003_95" depart="63530" from="900386124#0" to="177743535#0" type="passenger"/>
  <trip id="veh003_96" depart="68158" from="40784659#1" to="44472940#0" type="passenger"/>
  <trip id="veh003_97" depart="62369" from="12088974#3" to="-33683398#2" type="passenger"/>
  <trip id="veh003_98" depart="64828" from="-769600704" to="1207401650" type="passenger"/>
  <trip id="veh003_99" depart="67456" from="-70662727#0" to="47386145" type="passenger"/>
  <trip id="veh003_100" depart="62376" from="159942190" to="900386124#0" type="passenger"/>
  <trip id="veh003_101" depart="63388" from="47386145" to="900390006#1" type="passenger"/>
  <trip id="veh003_102" depart="61802" from="-769600704" to="610738423#1" type="passenger"/>
  <trip id="veh003_103" depart="68327" from="-33683398#2" to="145007016" type="passenger"/>
  <trip id="veh003_104" depart="63526" from="998773447#1" to="50323222#1" type="passenger"/>
  <trip id="veh003_105" depart="67172" from="-769600704" to="50843200#1" type="passenger"/>
  <trip id="veh003_106" depart="64873" from="175637233#0" to="-1092108194" type="passenger"/>
  <trip id="veh003_107" depart="65308" from="593755854" to="159538498#1" type="passenger"/>
  <trip id="veh003_108" depart="65253" from="47386145" to="900390006#1" type="passenger"/>
  <trip id="veh003_109" depart="62739" from="50323222#1" to="50325553" type="passenger"/>
  <trip id="veh003_110" depart="65245" from="177743535#0" to="12088974#3" type="passenger"/>
  <trip id="veh003_111" depart="66099" from="998773447#1" to="240034070#0" type="passenger"/>
  <trip id="veh003_112" depart="68203" from="44472940#0" to="-240666072#0" type="passenger"/>
  <trip id="veh003_113" depart="64271" from="610738424#0" to="-49073765#0" type="passenger"/>
  <trip id="veh003_114" depart="62759" from="44472940#1" to="68868377" type="passenger"/>
  <trip id="veh003_115" depart="62314" from="177743535#0" to="-47279971" type="passenger"/>
  <trip id="veh003_116" depart="68378" from="1119184635#1" to="-33683398#2" type="passenger"/>
  <trip id="veh003_117" depart="67540" from="175637233#0" to="1207401650" type="passenger"/>
  <trip id="veh003_118" depart="66713" from="237271809#3" to="900390006#1" type="passenger"/>
  <trip id="veh003_119" depart="68279" from="998773447#1" to="40784659#0" type="passenger"/>
  <trip id="veh003_120" depart="62967" from="900390006#1" to="-1273359359#1" type="passenger"/>
  <trip id="veh003_121" depart="63934" from="237271809#2" to="-768805831#1" type="passenger"/>
  <trip id="veh003_122" depart="63125" from="1119184635#1" to="1207401650" type="passenger"/>
  <trip id="veh003_123" depart="65849" from="159538498#1" to="47386111#1" type="passenger"/>
  <trip id="veh003_124" depart="62266" from="40299122#2" to="44472940#1" type="passenger"/>
  <trip id="veh003_125" depart="63261" from="-33683398#2" to="24465651#1" type="passenger"/>
  <trip id="veh003_126" depart="64214" from="-10738871#0" to="177743535#0" type="passenger"/>
  <trip id="veh003_127" depart="65427" from="40784659#1" to="47386145" type="passenger"/>
  <trip id="veh003_128" depart="65021" from="24465651#1" to="44472940#0" type="passenger"/>
  <trip id="veh003_129" depart="68193" from="47386145" to="610738424#0" type="passenger"/>
  <trip id="veh003_130" depart="63991" from="968332515#0" to="177743535#0" type="passenger"/>
  <trip id="veh003_131" depart="61933" from="10632130" to="240666074#4" type="passenger"/>
  <trip id="veh003_132" depart="67071" from="177743535#0" to="24623782#1" type="passenger"/>
  <trip id="veh003_133" depart="66816" from="159942190" to="1207401650" type="passenger"/>
  <trip id="veh003_134" depart="62620" from="10632130" to="998773447#1" type="passenger"/>
  <trip id="veh003_135" depart="66550" from="1085107695" to="177743535#0" type="passenger"/>
  <trip id="veh003_136" depart="62327" from="1363506394#4" to="50323222#1" type="passenger"/>
  <trip id="veh003_137" depart="65095" from="1068434254#0" to="431876176" type="passenger"/>
  <trip id="veh003_138" depart="64292" from="24623782#1" to="10632130" type="passenger"/>
  <trip id="veh003_139" depart="64740" from="-70662723#0" to="47386111#1" type="passenger"/>
  <trip id="veh003_140" depart="63347" from="39659484" to="40784659#1" type="passenger"/>
  <trip id="veh003_141" depart="65656" from="175637233#0" to="1207401650" type="passenger"/>
  <trip id="veh003_142" depart="61655" from="998773447#1" to="40140141#0" type="passenger"/>
  <trip id="veh003_143" depart="66386" from="1192417710" to="-1092108194" type="passenger"/>
  <trip id="veh003_144" depart="65491" from="159942190" to="1092600147#1" type="passenger"/>
  <trip id="veh003_145" depart="64637" from="1020246871" to="10629709#0" type="passenger"/>
  <trip id="veh003_146" depart="64024" from="-10738871#0" to="159538498#1" type="passenger"/>
  <trip id="veh003_147" depart="63085" from="40299122#2" to="-769600704" type="passenger"/>
  <trip id="veh003_148" depart="61452" from="1092600147#1" to="-769600704" type="passenger"/>
  <trip id="veh003_149" depart="65468" from="12088974#3" to="68868377" type="passenger"/>
  <trip id="veh003_150" depart="67960" from="173471112" to="-769600704" type="passenger"/>
  <trip id="veh003_151" depart="66229" from="-72083131" to="-1092108194" type="passenger"/>
  <trip id="veh003_152" depart="64822" from="-70662727#0" to="-33683398#2" type="passenger"/>
  <trip id="veh003_153" depart="63525" from="-33683398#2" to="40784659#1" type="passenger"/>
  <trip id="veh003_154" depart="63457" from="441994803" to="-238219473" type="passenger"/>
  <trip id="veh003_155" depart="67098" from="-769600704" to="1085107695" type="passenger"/>
  <trip id="veh003_156" depart="63037" from="-769600704" to="-768805831#1" type="passenger"/>
  <trip id="veh003_157" depart="63856" from="177743535#0" to="-1092108194" type="passenger"/>
  <trip id="veh003_158" depart="64975" from="173471112" to="998773447#1" type="passenger"/>
  <trip id="veh003_159" depart="66998" from="431876176" to="240034070#0" type="passenger"/>
  <trip id="veh003_160" depart="63401" from="1207401650" to="-33683398#2" type="passenger"/>
  <trip id="veh003_161" depart="66580" from="40784659#1" to="998773447#1" type="passenger"/>
  <trip id="veh003_162" depart="68120" from="1020246871" to="175637233#0" type="passenger"/>
  <trip id="veh003_163" depart="61750" from="610738424#0" to="24465651#1" type="passenger"/>
  <trip id="veh003_164" depart="64047" from="1363506394#4" to="1092600147#1" type="passenger"/>
  <trip id="veh003_165" depart="65690" from="240640942#1" to="-33683398#2" type="passenger"/>
  <trip id="veh003_166" depart="66163" from="50843198#3" to="446640439" type="passenger"/>
  <trip id="veh003_167" depart="61898" from="50323222#1" to="-768805831#1" type="passenger"/>
  <trip id="veh003_168" depart="63874" from="-769600704" to="50323222#1" type="passenger"/>
  <trip id="veh003_169" depart="64260" from="666271191" to="237271809#2" type="passenger"/>
  <trip id="veh003_170" depart="62570" from="43763701#3" to="-70662727#0" type="passenger"/>
  <trip id="veh003_171" depart="66403" from="610738424#0" to="47386145" type="passenger"/>
  <trip id="veh003_172" depart="66015" from="175760666" to="1363506394#4" type="passenger"/>
  <trip id="veh003_173" depart="65624" from="40784659#1" to="175760666" type="passenger"/>
  <trip id="veh003_174" depart="62616" from="998773447#1" to="446640439" type="passenger"/>
  <trip id="veh003_175" depart="63677" from="47386145" to="-768805831#1" type="passenger"/>
  <trip id="veh003_176" depart="67744" from="1068434254#0" to="177743535#0" type="passenger"/>
  <trip id="veh003_177" depart="62815" from="-40784652#0" to="1092600147#1" type="passenger"/>
  <trip id="veh003_178" depart="64999" from="-33683398#2" to="175760666" type="passenger"/>
  <trip id="veh003_179" depart="68078" from="177743535#0" to="50843196#0" type="passenger"/>
  <trip id="veh003_180" depart="62190" from="137220971" to="175760666" type="passenger"/>
  <trip id="veh003_181" depart="66532" from="431876176" to="610738424#0" type="passenger"/>
  <trip id="veh003_182" depart="63394" from="177743535#0" to="-232359138" type="passenger"/>
  <trip id="veh003_183" depart="61503" from="40784659#1" to="-70662727#0" type="passenger"/>
  <trip id="veh003_184" depart="68201" from="145007016" to="159942190" type="passenger"/>
  <trip id="veh003_185" depart="62955" from="10632130" to="177743535#0" type="passenger"/>
  <trip id="veh003_186" depart="62001" from="610738424#0" to="593755854" type="passenger"/>
  <trip id="veh003_187" depart="66007" from="24465651#1" to="159942190" type="passenger"/>
  <trip id="veh003_188" depart="61616" from="24465651#1" to="-72083131" type="passenger"/>
  <trip id="veh003_189" depart="66446" from="1363506394#4" to="1085107695" type="passenger"/>
  <trip id="veh003_190" depart="61885" from="610738424#0" to="-50323229" type="passenger"/>
  <trip id="veh003_191" depart="63210" from="10632130" to="240640942#1" type="passenger"/>
  <trip id="veh003_192" depart="62092" from="-238219473" to="610738424#0" type="passenger"/>
  <trip id="veh003_193" depart="65527" from="44472940#0" to="-768805831#1" type="passenger"/>
  <trip id="veh003_194" depart="67316" from="-769600704" to="10629709#0" type="passenger"/>
  <trip id="veh003_195" depart="65611" from="44472940#0" to="1192417710" type="passenger"/>
  <trip id="veh003_196" depart="68394" from="240640942#1" to="44472940#1" type="passenger"/>
  <trip id="veh003_197" depart="68211" from="50325553" to="50323222#1" type="passenger"/>
  <trip id="veh003_198" depart="62524" from="-70662727#0" to="237271809#2" type="passenger"/>
  <trip id="veh003_199" depart="62326" from="900390006#1" to="-863774952#0" type="passenger"/>
  <trip id="veh003_200" depart="64851" from="666271191" to="47386145" type="passenger"/>
  <trip id="veh003_201" depart="62428" from="40784659#0" to="159942190" type="passenger"/>
  <trip id="veh003_202" depart="63201" from="240007894#1" to="47386145" type="passenger"/>
  <trip id="veh003_203" depart="63303" from="-1092108194" to="159942190" type="passenger"/>
  <trip id="veh003_204" depart="64464" from="145007016" to="240034070#0" type="passenger"/>
  <trip id="veh003_205" depart="64526" from="240640942#1" to="1119184638#0" type="passenger"/>
  <trip id="veh003_206" depart="67012" from="40784659#1" to="593755854" type="passenger"/>
  <trip id="veh003_207" depart="63203" from="40784659#1" to="50843198#3" type="passenger"/>
  <trip id="veh003_208" depart="63114" from="-769600704" to="175760666" type="passenger"/>
  <trip id="veh003_209" depart="65328" from="177743535#0" to="-240666072#0" type="passenger"/>
  <trip id="veh003_210" depart="65886" from="446640439" to="-769600704" type="passenger"/>
  <trip id="veh003_211" depart="64059" from="47267014#1" to="175637233#0" type="passenger"/>
  <trip id="veh003_212" depart="63443" from="610738423#1" to="1085107695" type="passenger"/>
  <trip id="veh003_213" depart="67645" from="68868377" to="44472940#0" type="passenger"/>
  <trip id="veh003_214" depart="65930" from="47386145" to="-70662727#0" type="passenger"/>
  <trip id="veh003_215" depart="63341" from="-769600704" to="1363506394#4" type="passenger"/>
  <trip id="veh003_216" depart="65857" from="-240666072#0" to="-769600704" type="passenger"/>
  <trip id="veh003_217" depart="68399" from="177743535#0" to="40784659#0" type="passenger"/>
  <trip id="veh003_218" depart="61541" from="240640943#1" to="50323222#1" type="passenger"/>
  <trip id="veh003_219" depart="61563" from="-1092108194" to="1363506394#4" type="passenger"/>
  <trip id="veh003_220" depart="65810" from="-70662727#0" to="1326094907#0" type="passenger"/>
  <trip id="veh003_221" depart="62984" from="1085107695" to="41866489#1" type="passenger"/>
  <trip id="veh003_222" depart="63170" from="10632130" to="1207401650" type="passenger"/>
  <trip id="veh003_223" depart="63906" from="159942190" to="68868377" type="passenger"/>
  <trip id="veh003_224" depart="62553" from="446640439" to="998773447#1" type="passenger"/>
  <trip id="veh003_225" depart="61927" from="9704194#4" to="177743535#0" type="passenger"/>
  <trip id="veh003_226" depart="66036" from="1363506394#4" to="47386111#1" type="passenger"/>
  <trip id="veh003_227" depart="68283" from="40784659#1" to="237271809#2" type="passenger"/>
  <trip id="veh003_228" depart="66261" from="9704194#4" to="50843198#3" type="passenger"/>
  <trip id="veh003_229" depart="61285" from="1091984826#0" to="10632130" type="passenger"/>
  <trip id="veh003_230" depart="63670" from="47386111#1" to="159538498#1" type="passenger"/>
  <trip id="veh003_231" depart="66272" from="900390006#1" to="237271809#2" type="passenger"/>
  <trip id="veh003_232" depart="65427" from="44472940#1" to="50843198#3" type="passenger"/>
  <trip id="veh003_233" depart="64091" from="50325553" to="-1092108194" type="passenger"/>
  <trip id="veh003_234" depart="62503" from="1363506394#4" to="1085107695" type="passenger"/>
  <trip id="veh003_235" depart="67905" from="177743535#0" to="175760666" type="passenger"/>
  <trip id="veh003_236" depart="62910" from="72233381" to="50325553" type="passenger"/>
  <trip id="veh003_237" depart="64560" from="-1092108194" to="44472940#1" type="passenger"/>
  <trip id="veh003_238" depart="64381" from="-70662723#0" to="159538498#1" type="passenger"/>
  <trip id="veh003_239" depart="68321" from="240640942#1" to="666271191" type="passenger"/>
  <trip id="veh003_240" depart="65398" from="968332515#0" to="1363506394#4" type="passenger"/>
  <trip id="veh003_241" depart="64574" from="1091984826#0" to="220775319" type="passenger"/>
  <trip id="veh003_242" depart="67691" from="47386145" to="159942190" type="passenger"/>
  <trip id="veh003_243" depart="62206" from="-769600704" to="240034070#0" type="passenger"/>
  <trip id="veh003_244" depart="66876" from="1207401650" to="47267014#1" type="passenger"/>
  <trip id="veh003_245" depart="64296" from="-769600704" to="159538498#1" type="passenger"/>
  <trip id="veh003_246" depart="64470" from="-70662723#0" to="175760666" type="passenger"/>
  <trip id="veh003_247" depart="63233" from="10629709#0" to="1064853456" type="passenger"/>
  <trip id="veh003_248" depart="67444" from="-33683398#2" to="12088974#3" type="passenger"/>
  <trip id="veh003_249" depart="64788" from="177743535#0" to="240640942#1" type="passenger"/>
  <trip id="veh003_250" depart="64097" from="175760666" to="145007016" type="passenger"/>
  <trip id="veh003_251" depart="64719" from="47386145" to="-769600704" type="passenger"/>
  <trip id="veh003_252" depart="62344" from="47386111#1" to="227960847#0" type="passenger"/>
  <trip id="veh003_253" depart="62177" from="175760666" to="-768805831#1" type="passenger"/>
  <trip id="veh003_254" depart="66183" from="240640942#1" to="-226907342#1" type="passenger"/>
  <trip id="veh003_255" depart="61710" from="900386124#0" to="175637233#0" type="passenger"/>
  <trip id="veh003_256" depart="61944" from="10632130" to="40140141#0" type="passenger"/>
  <trip id="veh003_257" depart="61852" from="1064799814" to="39659484" type="passenger"/>
  <trip id="veh003_258" depart="64850" from="50843198#3" to="-1092108194" type="passenger"/>
  <trip id="veh003_259" depart="66840" from="240034070#0" to="47386145" type="passenger"/>
  <trip id="veh003_260" depart="65573" from="998773447#1" to="10632130" type="passenger"/>
  <trip id="veh003_261" depart="62825" from="1092600147#1" to="40784659#0" type="passenger"/>
  <trip id="veh003_262" depart="63874" from="47283778#2" to="1020246871" type="passenger"/>
  <trip id="veh003_263" depart="61850" from="240640942#1" to="50843196#0" type="passenger"/>
  <trip id="veh003_264" depart="64491" from="10632130" to="-33683398#2" type="passenger"/>
  <trip id="veh003_265" depart="61644" from="1020246871" to="50843200#1" type="passenger"/>
  <trip id="veh003_266" depart="63679" from="446640439" to="159538498#1" type="passenger"/>
  <trip id="veh003_267" depart="68309" from="-1092108194" to="1092600147#1" type="passenger"/>
  <trip id="veh003_268" depart="64847" from="159942190" to="240640942#1" type="passenger"/>
  <trip id="veh003_269" depart="67695" from="1085107695" to="24465651#1" type="passenger"/>
  <trip id="veh003_270" depart="62616" from="1064853456" to="68868377" type="passenger"/>
  <trip id="veh003_271" depart="66128" from="47386145" to="24465651#1" type="passenger"/>
  <trip id="veh003_272" depart="62096" from="-72083131" to="47386111#1" type="passenger"/>
  <trip id="veh003_273" depart="66250" from="40784659#1" to="10629709#0" type="passenger"/>
  <trip id="veh003_274" depart="62589" from="175760666" to="-1092108194" type="passenger"/>
  <trip id="veh003_275" depart="66232" from="-1092108194" to="177743535#0" type="passenger"/>
  <trip id="veh003_276" depart="63156" from="50843198#3" to="44472940#1" type="passenger"/>
  <trip id="veh003_277" depart="68106" from="1085107695" to="44472940#1" type="passenger"/>
  <trip id="veh003_278" depart="67721" from="44121335#0" to="50843196#0" type="passenger"/>
  <trip id="veh003_279" depart="67309" from="72233381" to="237271809#3" type="passenger"/>
  <trip id="veh003_280" depart="62922" from="-33683398#2" to="240007894#1" type="passenger"/>
  <trip id="veh003_281" depart="66922" from="1020246871" to="-863774952#0" type="passenger"/>
  <trip id="veh003_282" depart="67093" from="1064853456" to="1085107695" type="passenger"/>
  <trip id="veh003_283" depart="61816" from="1207401650" to="47386145" type="passenger"/>
  <trip id="veh003_284" depart="65379" from="593755854" to="431876176" type="passenger"/>
  <trip id="veh003_285" depart="62258" from="145007016" to="593755854" type="passenger"/>
  <trip id="veh003_286" depart="64127" from="50843198#3" to="431876176" type="passenger"/>
  <trip id="veh003_287" depart="65029" from="177743535#0" to="1207401650" type="passenger"/>
  <trip id="veh003_288" depart="68155" from="159942190" to="159538498#1" type="passenger"/>
  <trip id="veh003_289" depart="63733" from="610738423#1" to="10629709#0" type="passenger"/>
  <trip id="veh003_290" depart="66134" from="240034070#0" to="-33683398#2" type="passenger"/>
  <trip id="veh003_291" depart="68239" from="40784659#0" to="44472940#0" type="passenger"/>
  <trip id="veh003_292" depart="65561" from="10632130" to="240034070#0" type="passenger"/>
  <trip id="veh003_293" depart="62503" from="41866489#1" to="47283778#2" type="passenger"/>
  <trip id="veh003_294" depart="61649" from="50323222#1" to="610738424#0" type="passenger"/>
  <trip id="veh003_295" depart="62397" from="-768805831#1" to="1326094907#0" type="passenger"/>
  <trip id="veh003_296" depart="68146" from="1064853456" to="50843198#3" type="passenger"/>
  <trip id="veh003_297" depart="66073" from="237271809#2" to="177743535#0" type="passenger"/>
  <trip id="veh003_298" depart="61268" from="-238219473" to="44472940#0" type="passenger"/>
  <trip id="veh003_299" depart="64936" from="12088974#3" to="666271191" type="passenger"/>
  <trip id="veh003_300" depart="66228" from="237271809#3" to="-70662723#0" type="passenger"/>
  <trip id="veh003_301" depart="61504" from="50323222#1" to="900390006#1" type="passenger"/>
  <trip id="veh003_302" depart="65946" from="40784659#1" to="760475718" type="passenger"/>
  <trip id="veh003_303" depart="65894" from="40299122#2" to="-49073765#0" type="passenger"/>
  <trip id="veh003_304" depart="65176" from="72233381" to="1363506394#4" type="passenger"/>
  <trip id="veh003_305" depart="61328" from="-232359138" to="44472940#0" type="passenger"/>
  <trip id="veh003_306" depart="63934" from="47386145" to="998773447#1" type="passenger"/>
  <trip id="veh003_307" depart="61281" from="47386111#1" to="44472940#0" type="passenger"/>
  <trip id="veh003_308" depart="62769" from="1363506394#4" to="10629709#0" type="passenger"/>
  <trip id="veh003_309" depart="61728" from="1324706272" to="-769600704" type="passenger"/>
  <trip id="veh003_310" depart="66185" from="40140141#0" to="240034070#0" type="passenger"/>
  <trip id="veh003_311" depart="63058" from="177743535#0" to="1192417710" type="passenger"/>
  <trip id="veh003_312" depart="62632" from="44472940#0" to="1020246871" type="passenger"/>
  <trip id="veh003_313" depart="64362" from="1085107695" to="44121335#0" type="passenger"/>
  <trip id="veh003_314" depart="65098" from="610738424#0" to="44472940#0" type="passenger"/>
  <trip id="veh003_315" depart="62377" from="145007016" to="9704194#4" type="passenger"/>
  <trip id="veh003_316" depart="61724" from="24446738#3" to="-49073765#0" type="passenger"/>
  <trip id="veh003_317" depart="68193" from="-40784652#0" to="-33683398#2" type="passenger"/>
  <trip id="veh003_318" depart="65079" from="175760666" to="50843198#3" type="passenger"/>
  <trip id="veh003_319" depart="65420" from="593755854" to="610738424#0" type="passenger"/>
  <trip id="veh003_320" depart="64149" from="50843200#1" to="44472940#1" type="passenger"/>
  <trip id="veh003_321" depart="61407" from="47386145" to="593755854" type="passenger"/>
  <trip id="veh003_322" depart="63698" from="47386111#1" to="1020246871" type="passenger"/>
  <trip id="veh003_323" depart="64819" from="998773447#1" to="1326094907#0" type="passenger"/>
  <trip id="veh003_324" depart="67163" from="1068434254#0" to="-70662727#0" type="passenger"/>