<trips>
  <trip id="veh002_0" depart="35861" from="44121335#0" to="998773447#1" type="passenger"/>
  <trip id="veh002_1" depart="31172" from="240034070#0" to="-70662727#0" type="passenger"/>
  <trip id="veh002_2" depart="28872" from="136232037#0" to="240034070#0" type="passenger"/>
  <trip id="veh002_3" depart="34442" from="1326094907#0" to="-768805831#1" type="passenger"/>
  <trip id="veh002_4" depart="31900" from="240007894#1" to="237271809#3" type="passenger"/>
  <trip id="veh002_5" depart="34288" from="-232359138" to="-768805831#1" type="passenger"/>
  <trip id="veh002_6" depart="35693" from="610738424#0" to="240640943#1" type="passenger"/>
  <trip id="veh002_7" depart="32986" from="431876176" to="1363506394#4" type="passenger"/>
  <trip id="veh002_8" depart="31383" from="50843198#3" to="1326094907#0" type="passenger"/>
  <trip id="veh002_9" depart="31173" from="240034070#0" to="50323222#1" type="passenger"/>
  <trip id="veh002_10" depart="32709" from="41866489#1" to="-70662727#0" type="passenger"/>
  <trip id="veh002_11" depart="29865" from="40140141#0" to="159538498#1" type="passenger"/>
  <trip id="veh002_12" depart="34319" from="-1092108194" to="50843196#0" type="passenger"/>
  <trip id="veh002_13" depart="34615" from="1092600147#1" to="-10738871#0" type="passenger"/>
  <trip id="veh002_14" depart="34837" from="41866489#1" to="159942190" type="passenger"/>
  <trip id="veh002_15" depart="31827" from="47283778#2" to="-47279971" type="passenger"/>
  <trip id="veh002_16" depart="33633" from="40784659#1" to="50323222#1" type="passenger"/>
  <trip id="veh002_17" depart="32760" from="1020246871" to="1363506394#4" type="passenger"/>
  <trip id="veh002_18" depart="34401" from="1207401650" to="666271191" type="passenger"/>
  <trip id="veh002_19" depart="35676" from="240007894#1" to="1091984826#0" type="passenger"/>
  <trip id="veh002_20" depart="28876" from="-33683398#2" to="900390006#1" type="passenger"/>
  <trip id="veh002_21" depart="34972" from="1085107695" to="175760666" type="passenger"/>
  <trip id="veh002_22" depart="31107" from="593755854" to="441994803" type="passenger"/>
  <trip id="veh002_23" depart="30430" from="240007894#1" to="227960847#0" type="passenger"/>
  <trip id="veh002_24" depart="29720" from="44121335#0" to="137220971" type="passenger"/>
  <trip id="veh002_25" depart="29285" from="40784659#1" to="593755854" type="passenger"/>
  <trip id="veh002_26" depart="34336" from="240007894#1" to="-33683398#2" type="passenger"/>
  <trip id="veh002_27" depart="30269" from="1091984826#0" to="240640942#1" type="passenger"/>
  <trip id="veh002_28" depart="28844" from="177743535#0" to="159942190" type="passenger"/>
  <trip id="veh002_29" depart="34086" from="1091984826#0" to="610738423#1" type="passenger"/>
  <trip id="veh002_30" depart="32365" from="50843198#3" to="240640943#1" type="passenger"/>
  <trip id="veh002_31" depart="33932" from="900390006#1" to="237271809#3" type="passenger"/>
  <trip id="veh002_32" depart="35604" from="-238219473" to="-40784652#0" type="passenger"/>
  <trip id="veh002_33" depart="30950" from="50325553" to="760475718" type="passenger"/>
  <trip id="veh002_34" depart="34952" from="24465651#1" to="240007894#1" type="passenger"/>
  <trip id="veh002_35" depart="33275" from="10632130" to="593755854" type="passenger"/>
  <trip id="veh002_36" depart="32823" from="666271191" to="50843198#3" type="passenger"/>
  <trip id="veh002_37" depart="33281" from="610738423#1" to="68868377" type="passenger"/>
  <trip id="veh002_38" depart="31400" from="1192417710" to="1207401650" type="passenger"/>
  <trip id="veh002_39" depart="34184" from="-1092108194" to="-769600704" type="passenger"/>
  <trip id="veh002_40" depart="32043" from="240640942#1" to="177743535#0" type="passenger"/>
  <trip id="veh002_41" depart="29489" from="50323222#1" to="177743535#0" type="passenger"/>
  <trip id="veh002_42" depart="29893" from="900390006#1" to="446640439" type="passenger"/>
  <trip id="veh002_43" depart="35561" from="900390006#1" to="998773447#1" type="passenger"/>
  <trip id="veh002_44" depart="30718" from="137220971" to="41866489#1" type="passenger"/>
  <trip id="veh002_45" depart="31025" from="47386111#1" to="50843198#3" type="passenger"/>
  <trip id="veh002_46" depart="32507" from="10632130" to="237271809#3" type="passenger"/>
  <trip id="veh002_47" depart="33692" from="-1092108194" to="1068434254#0" type="passenger"/>
  <trip id="veh002_48" depart="31465" from="1064853456" to="240034070#0" type="passenger"/>
  <trip id="veh002_49" depart="28839" from="177743535#0" to="240640942#1" type="passenger"/>
  <trip id="veh002_50" depart="34001" from="50843200#1" to="177743535#0" type="passenger"/>
  <trip id="veh002_51" depart="31930" from="-10738871#0" to="1020246871" type="passenger"/>
  <trip id="veh002_52" depart="34425" from="446640439" to="50323222#1" type="passenger"/>
  <trip id="veh002_53" depart="30080" from="47386145" to="1085107695" type="passenger"/>
  <trip id="veh002_54" depart="28841" from="237271809#3" to="159942190" type="passenger"/>
  <trip id="veh002_55" depart="34511" from="610738424#0" to="175760666" type="passenger"/>
  <trip id="veh002_56" depart="30339" from="-226907342#1" to="240640942#1" type="passenger"/>
  <trip id="veh002_57" depart="29578" from="998773447#1" to="240640943#1" type="passenger"/>
  <trip id="veh002_58" depart="34028" from="-70662727#0" to="47386145" type="passenger"/>
  <trip id="veh002_59" depart="31101" from="-10632130" to="68868377" type="passenger"/>
  <trip id="veh002_60" depart="34361" from="177743535#0" to="50323222#1" type="passenger"/>
  <trip id="veh002_61" depart="33239" from="1091984826#0" to="50843198#3" type="passenger"/>
  <trip id="veh002_62" depart="34148" from="-232359138" to="-70662723#0" type="passenger"/>
  <trip id="veh002_63" depart="29080" from="1091984826#0" to="1324706272" type="passenger"/>
  <trip id="veh002_64" depart="28931" from="666271191" to="240034070#0" type="passenger"/>
  <trip id="veh002_65" depart="29747" from="1363506394#4" to="44472940#0" type="passenger"/>
  <trip id="veh002_66" depart="30091" from="-40784652#0" to="177743535#0" type="passenger"/>
  <trip id="veh002_67" depart="31036" from="177743535#0" to="-49073765#0" type="passenger"/>
  <trip id="veh002_68" depart="30833" from="1192417710" to="40784659#1" type="passenger"/>
  <trip id="veh002_69" depart="31254" from="446640439" to="1092600147#1" type="passenger"/>
  <trip id="veh002_70" depart="35328" from="240666074#4" to="44121335#0" type="passenger"/>
  <trip id="veh002_71" depart="32733" from="1363506394#4" to="-769600704" type="passenger"/>
  <trip id="veh002_72" depart="32794" from="44472940#0" to="1207401650" type="passenger"/>
  <trip id="veh002_73" depart="34442" from="40140141#0" to="237271809#2" type="passenger"/>
  <trip id="veh002_74" depart="31895" from="446640439" to="1207401650" type="passenger"/>
  <trip id="veh002_75" depart="34454" from="760475718" to="240034070#0" type="passenger"/>
  <trip id="veh002_76" depart="35655" from="900390006#1" to="44472940#1" type="passenger"/>
  <trip id="veh002_77" depart="35147" from="39659484" to="145007016" type="passenger"/>
  <trip id="veh002_78" depart="30643" from="44472940#0" to="50843196#0" type="passenger"/>
  <trip id="veh002_79" depart="31036" from="12088974#3" to="-70662723#0" type="passenger"/>
  <trip id="veh002_80" depart="29597" from="998773447#1" to="-49073765#0" type="passenger"/>
  <trip id="veh002_81" depart="31271" from="175637233#0" to="1020246871" type="passenger"/>
  <trip id="veh002_82" depart="30527" from="175760666" to="-768805831#1" type="passenger"/>
  <trip id="veh002_83" depart="34620" from="968332515#0" to="610738424#0" type="passenger"/>
  <trip id="veh002_84" depart="32434" from="50323222#1" to="177743535#0" type="passenger"/>
  <trip id="veh002_85" depart="33644" from="47386145" to="175637233#0" type="passenger"/>
  <trip id="veh002_86" depart="30622" from="50843196#0" to="1363506394#4" type="passenger"/>
  <trip id="veh002_87" depart="34266" from="-33683398#2" to="610738424#0" type="passenger"/>
  <trip id="veh002_88" depart="29288" from="175760666" to="220775319" type="passenger"/>
  <trip id="veh002_89" depart="34473" from="666271191" to="40140141#0" type="passenger"/>
  <trip id="veh002_90" depart="30128" from="50843198#3" to="-70662727#0" type="passenger"/>
  <trip id="veh002_91" depart="30691" from="1119184638#0" to="50843198#3" type="passenger"/>
  <trip id="veh002_92" depart="35335" from="998773447#1" to="227960847#0" type="passenger"/>
  <trip id="veh002_93" depart="35090" from="50325553" to="175760666" type="passenger"/>
  <trip id="veh002_94" depart="34160" from="159942190" to="610738424#0" type="passenger"/>
  <trip id="veh002_95" depart="31518" from="47386145" to="-769600704" type="passenger"/>
  <trip id="veh002_96" depart="34566" from="1207401650" to="10632130" type="passenger"/>
  <trip id="veh002_97" depart="28883" from="998773447#1" to="136232037#0" type="passenger"/>
  <trip id="veh002_98" depart="33371" from="-70662727#0" to="40784659#1" type="passenger"/>
  <trip id="veh002_99" depart="35325" from="50323222#1" to="240034070#0" type="passenger"/>
  <trip id="veh002_100" depart="33789" from="593755854" to="1085107695" type="passenger"/>
  <trip id="veh002_101" depart="34472" from="446640439" to="72233381" type="passenger"/>
  <trip id="veh002_102" depart="35578" from="50325553" to="760475718" type="passenger"/>
  <trip id="veh002_103" depart="30555" from="-232359138" to="-50323229" type="passenger"/>
  <trip id="veh002_104" depart="29723" from="900386124#0" to="998773447#1" type="passenger"/>
  <trip id="veh002_105" depart="29894" from="50323222#1" to="-768805831#1" type="passenger"/>
  <trip id="veh002_106" depart="31053" from="-226907342#1" to="-1092108194" type="passenger"/>
  <trip id="veh002_107" depart="33188" from="900390006#1" to="1020246871" type="passenger"/>
  <trip id="veh002_108" depart="31926" from="220775319" to="1091984826#0" type="passenger"/>
  <trip id="veh002_109" depart="30407" from="237271809#3" to="173471112" type="passenger"/>
  <trip id="veh002_110" depart="32476" from="12088974#3" to="-49073765#0" type="passenger"/>
  <trip id="veh002_111" depart="30823" from="68868377" to="175760666" type="passenger"/>
  <trip id="veh002_112" depart="31413" from="47267014#1" to="-33683398#2" type="passenger"/>
  <trip id="veh002_113" depart="29120" from="12088974#3" to="610738424#0" type="passenger"/>
  <trip id="veh002_114" depart="33334" from="-70662727#0" to="43763701#3" type="passenger"/>
  <trip id="veh002_115" depart="30103" from="998773447#1" to="446640439" type="passenger"/>
  <trip id="veh002_116" depart="32800" from="40784659#1" to="760475718" type="passenger"/>
  <trip id="veh002_117" depart="31078" from="159942190" to="10629709#0" type="passenger"/>
  <trip id="veh002_118" depart="31162" from="-70662723#0" to="159942190" type="passenger"/>
  <trip id="veh002_119" depart="30543" from="47386111#1" to="998773447#1" type="passenger"/>
  <trip id="veh002_120" depart="30336" from="1207401650" to="1091984826#0" type="passenger"/>
  <trip id="veh002_121" depart="35994" from="-863774952#0" to="-1092108194" type="passenger"/>
  <trip id="veh002_122" depart="31051" from="-238219473" to="610738424#0" type="passenger"/>
  <trip id="veh002_123" depart="32192" from="175760666" to="998773447#1" type="passenger"/>
  <trip id="veh002_124" depart="35176" from="24465651#1" to="47386111#1" type="passenger"/>
  <trip id="veh002_125" depart="30711" from="-72083131" to="593755854" type="passenger"/>
  <trip id="veh002_126" depart="32774" from="159942190" to="10632130" type="passenger"/>
  <trip id="veh002_127" depart="31459" from="24465651#1" to="610738423#1" type="passenger"/>
  <trip id="veh002_128" depart="31268" from="240640942#1" to="177743535#0" type="passenger"/>
  <trip id="veh002_129" depart="33854" from="50323222#1" to="10632130" type="passenger"/>
  <trip id="veh002_130" depart="31851" from="68868377" to="47386145" type="passenger"/>
  <trip id="veh002_131" depart="35171" from="900390006#1" to="24465651#1" type="passenger"/>
  <trip id="veh002_132" depart="31654" from="-1273359359#1" to="177743535#0" type="passenger"/>
  <trip id="veh002_133" depart="33309" from="47386145" to="-33683398#2" type="passenger"/>
  <trip id="veh002_134" depart="31671" from="50323222#1" to="177743535#0" type="passenger"/>
  <trip id="veh002_135" depart="30097" from="-238219473" to="1363506394#4" type="passenger"/>
  <trip id="veh002_136" depart="32220" from="240666074#4" to="159942190" type="passenger"/>
  <trip id="veh002_137" depart="29359" from="41866489#1" to="1064799814" type="passenger"/>
  <trip id="veh002_138" depart="34053" from="175637233#0" to="-70662727#0" type="passenger"/>
  <trip id="veh002_139" depart="29639" from="-49073765#0" to="175760666" type="passenger"/>
  <trip id="veh002_140" depart="30898" from="50323222#1" to="1207401650" type="passenger"/>
  <trip id="veh002_141" depart="29067" from="24446738#3" to="-70662723#0" type="passenger"/>
  <trip id="veh002_142" depart="35830" from="40784659#0" to="220775319" type="passenger"/>
  <trip id="veh002_143" depart="29503" from="12088974#3" to="40299122#2" type="passenger"/>
  <trip id="veh002_144" depart="34979" from="40784659#1" to="175760666" type="passenger"/>
  <trip id="veh002_145" depart="32634" from="47267014#1" to="1092600147#1" type="passenger"/>
  <trip id="veh002_146" depart="34374" from="-70662727#0" to="-768805831#1" type="passenger"/>
  <trip id="veh002_147" depart="35308" from="-1092108194" to="-70662723#0" type="passenger"/>
  <trip id="veh002_148" depart="28969" from="1064853456" to="40784659#1" type="passenger"/>
  <trip id="veh002_149" depart="32743" from="1363506394#4" to="159942190" type="passenger"/>
  <trip id="veh002_150" depart="33525" from="610738423#1" to="-70662727#0" type="passenger"/>
  <trip id="veh002_151" depart="32287" from="666271191" to="593755854" type="passenger"/>
  <trip id="veh002_152" depart="32325" from="431876176" to="237271809#3" type="passenger"/>
  <trip id="veh002_153" depart="30238" from="1326094907#0" to="-10632130" type="passenger"/>
  <trip id="veh002_154" depart="34313" from="1091984826#0" to="968332515#0" type="passenger"/>
  <trip id="veh002_155" depart="33014" from="177743535#0" to="-70662723#0" type="passenger"/>
  <trip id="veh002_156" depart="33803" from="177743535#0" to="50325553" type="passenger"/>
  <trip id="veh002_157" depart="29173" from="240640943#1" to="237271809#3" type="passenger"/>
  <trip id="veh002_158" depart="33958" from="159538498#1" to="240640942#1" type="passenger"/>
  <trip id="veh002_159" depart="29264" from="175760666" to="220775319" type="passenger"/>
  <trip id="veh002_160" depart="33905" from="159942190" to="47267014#1" type="passenger"/>
  <trip id="veh002_161" depart="30751" from="136232037#0" to="-33683398#2" type="passenger"/>
  <trip id="veh002_162" depart="30205" from="40299122#2" to="175760666" type="passenger"/>
  <trip id="veh002_163" depart="35550" from="240640942#1" to="1064853456" type="passenger"/>
  <trip id="veh002_164" depart="34834" from="998773447#1" to="159942190" type="passenger"/>
  <trip id="veh002_165" depart="35790" from="-226907342#1" to="1064853456" type="passenger"/>
  <trip id="veh002_166" depart="34095" from="159942190" to="177743535#0" type="passenger"/>
  <trip id="veh002_167" depart="32093" from="50843200#1" to="41866489#1" type="passenger"/>
  <trip id="veh002_168" depart="31806" from="-1092108194" to="1064799814" type="passenger"/>
  <trip id="veh002_169" depart="32438" from="9704194#4" to="-10738871#0" type="passenger"/>
  <trip id="veh002_170" depart="29006" from="-33683398#2" to="998773447#1" type="passenger"/>
  <trip id="veh002_171" depart="33628" from="-33683398#2" to="1363506394#4" type="passenger"/>
  <trip id="veh002_172" depart="30985" from="44472940#0" to="240640942#1" type="passenger"/>
  <trip id="veh002_173" depart="33352" from="159942190" to="-226907342#1" type="passenger"/>
  <trip id="veh002_174" depart="34192" from="-50323229" to="968332515#0" type="passenger"/>
  <trip id="veh002_175" depart="32128" from="40784659#0" to="610738423#1" type="passenger"/>
  <trip id="veh002_176" depart="32003" from="666271191" to="900386124#0" type="passenger"/>
  <trip id="veh002_177" depart="32433" from="240640942#1" to="1326094907#0" type="passenger"/>
  <trip id="veh002_178" depart="30676" from="47283778#2" to="-50323229" type="passenger"/>
  <trip id="veh002_179" depart="34872" from="177743535#0" to="50843196#0" type="passenger"/>
  <trip id="veh002_180" depart="31852" from="-1273359359#1" to="1363506394#4" type="passenger"/>
  <trip id="veh002_181" depart="34262" from="50843198#3" to="237271809#2" type="passenger"/>
  <trip id="veh002_182" depart="34140" from="1192417710" to="1064799814" type="passenger"/>
  <trip id="veh002_183" depart="29808" from="12088974#3" to="1119184635#1" type="passenger"/>
  <trip id="veh002_184" depart="35566" from="593755854" to="50323222#1" type="passenger"/>
  <trip id="veh002_185" depart="30715" from="50323222#1" to="900390006#1" type="passenger"/>
  <trip id="veh002_186" depart="32201" from="240640942#1" to="1324706272" type="passenger"/>
  <trip id="veh002_187" depart="29730" from="1091984826#0" to="50843198#3" type="passenger"/>
  <trip id="veh002_188" depart="31348" from="159942190" to="50323222#1" type="passenger"/>
  <trip id="veh002_189" depart="35439" from="177743535#0" to="24465651#1" type="passenger"/>
  <trip id="veh002_190" depart="33094" from="39659484" to="-769600704" type="passenger"/>
  <trip id="veh002_191" depart="29065" from="40784659#1" to="12088974#3" type="passenger"/>
  <trip id="veh002_192" depart="35779" from="-70662727#0" to="159942190" type="passenger"/>
  <trip id="veh002_193" depart="34675" from="-1092108194" to="41866489#1" type="passenger"/>
  <trip id="veh002_194" depart="32063" from="-1092108194" to="-769600704" type="passenger"/>
  <trip id="veh002_195" depart="35273" from="-49073765#0" to="-33683398#2" type="passenger"/>
  <trip id="veh002_196" depart="31386" from="159538498#1" to="237271809#2" type="passenger"/>
  <trip id="veh002_197" depart="34851" from="1091984826#0" to="1020246871" type="passenger"/>
  <trip id="veh002_198" depart="30597" from="-1092108194" to="159538498#1" type="passenger"/>
  <trip id="veh002_199" depart="33846" from="159942190" to="177743535#0" type="passenger"/>
  <trip id="veh002_200" depart="30792" from="610738424#0" to="-1273359359#1" type="passenger"/>
  <trip id="veh002_201" depart="31242" from="41866489#1" to="175760666" type="passenger"/>
  <trip id="veh002_202" depart="32233" from="446640439" to="175637233#0" type="passenger"/>
  <trip id="veh002_203" depart="33500" from="-33683398#2" to="72233381" type="passenger"/>
  <trip id="veh002_204" depart="33826" from="72233381" to="998773447#1" type="passenger"/>
  <trip id="veh002_205" depart="33488" from="1091984826#0" to="137220971" type="passenger"/>
  <trip id="veh002_206" depart="32301" from="40784659#0" to="44121335#0" type="passenger"/>
  <trip id="veh002_207" depart="32499" from="50325553" to="10632130" type="passenger"/>
  <trip id="veh002_208" depart="35284" from="50323222#1" to="-33683398#2" type="passenger"/>
  <trip id="veh002_209" depart="30746" from="12088974#3" to="72233381" type="passenger"/>
  <trip id="veh002_210" depart="35841" from="159942190" to="9704194#4" type="passenger"/>
  <trip id="veh002_211" depart="35953" from="-50323229" to="1363506394#4" type="passenger"/>
  <trip id="veh002_212" depart="35573" from="1020246871" to="177743535#0" type="passenger"/>
  <trip id="veh002_213" depart="29972" from="-226907342#1" to="240640942#1" type="passenger"/>
  <trip id="veh002_214" depart="34017" from="47386145" to="1207401650" type="passenger"/>
  <trip id="veh002_215" depart="29137" from="-49073765#0" to="1092600147#1" type="passenger"/>
  <trip id="veh002_216" depart="32985" from="1091984826#0" to="-40784652#0" type="passenger"/>
  <trip id="veh002_217" depart="32711" from="240007894#1" to="-1092108194" type="passenger"/>
  <trip id="veh002_218" depart="31747" from="-33683398#2" to="1020246871" type="passenger"/>
  <trip id="veh002_219" depart="29302" from="47386145" to="50843200#1" type="passenger"/>
  <trip id="veh002_220" depart="31824" from="159942190" to="159538498#1" type="passenger"/>
  <trip id="veh002_221" depart="35496" from="47283778#2" to="44472940#0" type="passenger"/>
  <trip id="veh002_222" depart="31663" from="220775319" to="159538498#1" type="passenger"/>
  <trip id="veh002_223" depart="29448" from="1326094907#0" to="237271809#3" type="passenger"/>
  <trip id="veh002_224" depart="31105" from="44472940#0" to="-49073765#0" type="passenger"/>
  <trip id="veh002_225" depart="31888" from="-70662727#0" to="177743535#0" type="passenger"/>
  <trip id="veh002_226" depart="30395" from="177743535#0" to="-238219473" type="passenger"/>
  <trip id="veh002_227" depart="31575" from="159942190" to="240034070#0" type="passenger"/>
  <trip id="veh002_228" depart="31764" from="-33683398#2" to="12088974#3" type="passenger"/>
  <trip id="veh002_229" depart="32571" from="40784659#0" to="240034070#0" type="passenger"/>
  <trip id="veh002_230" depart="29907" from="40140141#0" to="593755854" type="passenger"/>
  <trip id="veh002_231" depart="35230" from="1207401650" to="1363506394#4" type="passenger"/>
  <trip id="veh002_232" depart="33077" from="-50323229" to="441994803" type="passenger"/>
  <trip id="veh002_233" depart="28982" from="-70662723#0" to="50843198#3" type="passenger"/>
  <trip id="veh002_234" depart="32459" from="39659484" to="610738423#1" type="passenger"/>
  <trip id="veh002_235" depart="34783" from="50323222#1" to="-33683398#2" type="passenger"/>
  <trip id="veh002_236" depart="34057" from="-33683398#2" to="177743535#0" type="passenger"/>
  <trip id="veh002_237" depart="33729" from="10632130" to="-70662723#0" type="passenger"/>
  <trip id="veh002_238" depart="30541" from="-70662723#0" to="-769600704" type="passenger"/>
  <trip id="veh002_239" depart="34431" from="240007894#1" to="610738424#0" type="passenger"/>
  <trip id="veh002_240" depart="31933" from="-33683398#2" to="1207401650" type="passenger"/>
  <trip id="veh002_241" depart="32182" from="50325553" to="-1092108194" type="passenger"/>
  <trip id="veh002_242" depart="28961" from="145007016" to="72233381" type="passenger"/>
  <trip id="veh002_243" depart="29401" from="50843200#1" to="50323222#1" type="passenger"/>
  <trip id="veh002_244" depart="34004" from="159942190" to="220775319" type="passenger"/>
  <trip id="veh002_245" depart="30753" from="47386145" to="175637233#0" type="passenger"/>
  <trip id="veh002_246" depart="29417" from="-10632130" to="-1092108194" type="passenger"/>
  <trip id="veh002_247" depart="34284" from="-33683398#2" to="1064799814" type="passenger"/>
  <trip id="veh002_248" depart="30298" from="1068434254#0" to="12088974#3" type="passenger"/>
  <trip id="veh002_249" depart="34052" from="610738424#0" to="175637233#0" type="passenger"/>
  <trip id="veh002_250" depart="30459" from="10629709#0" to="50843196#0" type="passenger"/>
  <trip id="veh002_251" depart="32677" from="40140141#0" to="1363506394#4" type="passenger"/>
  <trip id="veh002_252" depart="33977" from="47386111#1" to="1020246871" type="passenger"/>
  <trip id="veh002_253" depart="30386" from="137220971" to="446640439" type="passenger"/>
  <trip id="veh002_254" depart="34192" from="173471112" to="220775319" type="passenger"/>
  <trip id="veh002_255" depart="34930" from="177743535#0" to="240640942#1" type="passenger"/>
  <trip id="veh002_256" depart="33181" from="610738423#1" to="159942190" type="passenger"/>
  <trip id="veh002_257" depart="28904" from="24465651#1" to="240666074#4" type="passenger"/>
  <trip id="veh002_258" depart="31539" from="1092600147#1" to="24465651#1" type="passenger"/>
  <trip id="veh002_259" depart="35266" from="173471112" to="1064799814" type="passenger"/>
  <trip id="veh002_260" depart="32773" from="237271809#2" to="1091984826#0" type="passenger"/>
  <trip id="veh002_261" depart="31442" from="24623782#1" to="240640942#1" type="passenger"/>
  <trip id="veh002_262" depart="34480" from="47267014#1" to="1207401650" type="passenger"/>
  <trip id="veh002_263" depart="33681" from="40784659#0" to="998773447#1" type="passenger"/>
  <trip id="veh002_264" depart="32817" from="1324706272" to="-768805831#1" type="passenger"/>
  <trip id="veh002_265" depart="31080" from="44472940#0" to="68868377" type="passenger"/>
  <trip id="veh002_266" depart="29037" from="44472940#0" to="900390006#1" type="passenger"/>
  <trip id="veh002_267" depart="33466" from="24465651#1" to="175760666" type="passenger"/>
  <trip id="veh002_268" depart="33645" from="68868377" to="50323222#1" type="passenger"/>
  <trip id="veh002_269" depart="33560" from="177743535#0" to="610738424#0" type="passenger"/>
  <trip id="veh002_270" depart="32095" from="1363506394#4" to="10629709#0" type="passenger"/>
  <trip id="veh002_271" depart="31201" from="610738423#1" to="44472940#0" type="passenger"/>
  <trip id="veh002_272" depart="34116" from="24623782#1" to="240034070#0" type="passenger"/>
  <trip id="veh002_273" depart="34480" from="50323222#1" to="237271809#2" type="passenger"/>
  <trip id="veh002_274" depart="34596" from="666271191" to="1064853456" type="passenger"/>
  <trip id="veh002_275" depart="29961" from="446640439" to="44121335#0" type="passenger"/>
  <trip id="veh002_276" depart="32385" from="175760666" to="-769600704" type="passenger"/>
  <trip id="veh002_277" depart="35880" from="240034070#0" to="24465651#1" type="passenger"/>
  <trip id="veh002_278" depart="34085" from="10632130" to="43763701#3" type="passenger"/>
  <trip id="veh002_279" depart="33693" from="50843198#3" to="237271809#2" type="passenger"/>
  <trip id="veh002_280" depart="33852" from="610738424#0" to="41866489#1" type="passenger"/>
  <trip id="veh002_281" depart="29479" from="237271809#2" to="-1092108194" type="passenger"/>
  <trip id="veh002_282" depart="30264" from="-238219473" to="1363506394#4" type="passenger"/>
  <trip id="veh002_283" depart="34691" from="-232359138" to="-33683398#2" type="passenger"/>
  <trip id="veh002_284" depart="35736" from="240640942#1" to="220775319" type="passenger"/>
  <trip id="veh002_285" depart="31784" from="593755854" to="159942190" type="passenger"/>
  <trip id="veh002_286" depart="33823" from="240007894#1" to="240034070#0" type="passenger"/>
  <trip id="veh002_287" depart="33268" from="900390006#1" to="177743535#0" type="passenger"/>
  <trip id="veh002_288" depart="31636" from="50843196#0" to="177743535#0" type="passenger"/>
  <trip id="veh002_289" depart="32979" from="47386145" to="159538498#1" type="passenger"/>
  <trip id="veh002_290" depart="29600" from="900390006#1" to="666271191" type="passenger"/>
  <trip id="veh002_291" depart="32879" from="1085107695" to="446640439" type="passenger"/>
  <trip id="veh002_292" depart="34570" from="24465651#1" to="-240666072#0" type="passenger"/>
  <trip id="veh002_293" depart="29366" from="9704194#4" to="240034070#0" type="passenger"/>
  <trip id="veh002_294" depart="30578" from="41866489#1" to="159942190" type="passenger"/>
  <trip id="veh002_295" depart="29449" from="12088974#3" to="50325553" type="passenger"/>
  <trip id="veh002_296" depart="29170" from="220775319" to="610738424#0" type="passenger"/>
  <trip id="veh002_297" depart="35842" from="610738423#1" to="-240666072#0" type="passenger"/>
  <trip id="veh002_298" depart="29049" from="47386145" to="1020246871" type="passenger"/>
  <trip id="veh002_299" depart="30116" from="177743535#0" to="237271809#3" type="passenger"/>
  <trip id="veh002_300" depart="29245" from="-72083131" to="-70662723#0" type="passenger"/>
  <trip id="veh002_301" depart="31138" from="900390006#1" to="47386145" type="passenger"/>
  <trip id="veh002_302" depart="30551" from="610738424#0" to="44472940#0" type="passenger"/>
  <trip id="veh002_303" depart="29697" from="-50323229" to="177743535#0" type="passenger"/>
  <trip id="veh002_304" depart="29484" from="173471112" to="47386145" type="passenger"/>
  <trip id="veh002_305" depart="32031" from="40784659#1" to="10632130" type="passenger"/>
  <trip id="veh002_306" depart="32469" from="175760666" to="-49073765#0" type="passenger"/>
  <trip id="veh002_307" depart="29417" from="-40784652#0" to="1363506394#4" type="passenger"/>
  <trip id="veh002_308" depart="35251" from="1324706272" to="173471112" type="passenger"/>
  <trip id="veh002_309" depart="31120" from="159942190" to="1091984826#0" type="passenger"/>
  <trip id="veh002_310" depart="35726" from="43763701#3" to="441994803" type="passenger"/>
  <trip id="veh002_311" depart="32179" from="1092600147#1" to="-1273359359#1" type="passenger"/>
  <trip id="veh002_312" depart="31735" from="68868377" to="-72083131" type="passenger"/>
  <trip id="veh002_313" depart="35578" from="-226907342#1" to="240640942#1" type="passenger"/>
  <trip id="veh002_314" depart="33583" from="-50323229" to="47386145" type="passenger"/>
  <trip id="veh002_315" depart="32948" from="-40784652#0" to="220775319" type="passenger"/>
  <trip id="veh002_316" depart="32620" from="177743535#0" to="50843198#3" type="passenger"/>
  <trip id="veh002_317" depart="34141" from="10632130" to="159538498#1" type="passenger"/>
  <trip id="veh002_318" depart="32552" from="240007894#1" to="446640439" type="passenger"/>
  <trip id="veh002_319" depart="33204" from="1020246871" to="10632130" type="passenger"/>
  <trip id="veh002_320" depart="34953" from="-10632130" to="50323222#1" type="passenger"/>
  <trip id="veh002_321" depart="34846" from="175637233#0" to="900390006#1" type="passenger"/>
  <trip id="veh002_322" depart="33492" from="145007016" to="24465651#1" type="passenger"/>
  <trip id="veh002_323" depart="29135" from="237271809#3" to="47386145" type="passenger"/>
  <trip id="veh002_324" depart="32668" from="175760666" to="50323222#1" type="passenger"/>