<trips>
  <trip id="veh002_0" depart="35861" from="679060031" to="446640439" type="passenger"/>
  <trip id="veh002_1" depart="31172" from="163764181#0" to="1387458837" type="passenger"/>
  <trip id="veh002_2" depart="28872" from="-39658122#4" to="163764181#0" type="passenger"/>
  <trip id="veh002_3" depart="34442" from="163764181#0" to="1262057043#2" type="passenger"/>
  <trip id="veh002_4" depart="31900" from="-176637359#2" to="169004589#0" type="passenger"/>
  <trip id="veh002_5" depart="34288" from="593755854" to="49171011#1" type="passenger"/>
  <trip id="veh002_6" depart="35693" from="958852841" to="50843170" type="passenger"/>
  <trip id="veh002_7" depart="32986" from="424580470#5" to="504456844" type="passenger"/>
  <trip id="veh002_8" depart="31383" from="-1225879469" to="163764181#0" type="passenger"/>
  <trip id="veh002_9" depart="31173" from="163764181#0" to="39697113#3" type="passenger"/>
  <trip id="veh002_10" depart="32709" from="-50843173#3" to="-141172463#0" type="passenger"/>
  <trip id="veh002_11" depart="29865" from="-863774952#1" to="1016015052" type="passenger"/>
  <trip id="veh002_12" depart="29203" from="769245718" to="240666074#0" type="passenger"/>
  <trip id="veh002_13" depart="34369" from="39658122#0" to="238492234#0" type="passenger"/>
  <trip id="veh002_14" depart="34645" from="1005394019#0" to="-50843173#3" type="passenger"/>
  <trip id="veh002_15" depart="35447" from="169004589#0" to="-1068139751" type="passenger"/>
  <trip id="veh002_16" depart="33965" from="958852841" to="-1068139751" type="passenger"/>
  <trip id="veh002_17" depart="30033" from="-451728952#4" to="457547879#4" type="passenger"/>
  <trip id="veh002_18" depart="35304" from="240666074#0" to="-451728952#4" type="passenger"/>
  <trip id="veh002_19" depart="33848" from="-39750994#4" to="-176637359#2" type="passenger"/>
  <trip id="veh002_20" depart="29157" from="143996571#1" to="-1068139751" type="passenger"/>
  <trip id="veh002_21" depart="28919" from="-226854874" to="39674883#1" type="passenger"/>
  <trip id="veh002_22" depart="33354" from="1235145933" to="-50323232#2" type="passenger"/>
  <trip id="veh002_23" depart="31721" from="446640439" to="-176637359#2" type="passenger"/>
  <trip id="veh002_24" depart="31756" from="1235145933" to="679060031" type="passenger"/>
  <trip id="veh002_25" depart="33770" from="958852841" to="-1068139751" type="passenger"/>
  <trip id="veh002_26" depart="35031" from="1262057048#0" to="-176637359#2" type="passenger"/>
  <trip id="veh002_27" depart="29803" from="39658122#0" to="39697113#3" type="passenger"/>
  <trip id="veh002_28" depart="34822" from="-52205556" to="238492234#0" type="passenger"/>
  <trip id="veh002_29" depart="31205" from="-1068139751" to="39697113#3" type="passenger"/>
  <trip id="veh002_30" depart="29409" from="238492234#0" to="-1225879469" type="passenger"/>
  <trip id="veh002_31" depart="34438" from="39674883#1" to="1064816194" type="passenger"/>
  <trip id="veh002_32" depart="35829" from="232359137" to="169004589#0" type="passenger"/>
  <trip id="veh002_33" depart="30950" from="-1068139751" to="-226854874" type="passenger"/>
  <trip id="veh002_34" depart="34952" from="-1080217656#1" to="-176637359#2" type="passenger"/>
  <trip id="veh002_35" depart="33275" from="136014464#0" to="-126724514#0" type="passenger"/>
  <trip id="veh002_36" depart="32823" from="237271809#4" to="-1225879469" type="passenger"/>
  <trip id="veh002_37" depart="33281" from="-220770272" to="9704194#7" type="passenger"/>
  <trip id="veh002_38" depart="31400" from="39689392#0" to="1005394020#2" type="passenger"/>
  <trip id="veh002_39" depart="34184" from="240666074#0" to="238492234#0" type="passenger"/>
  <trip id="veh002_40" depart="32043" from="-52205556" to="238492234#0" type="passenger"/>
  <trip id="veh002_41" depart="29489" from="-40035992#5" to="238492234#0" type="passenger"/>
  <trip id="veh002_42" depart="29893" from="1064816194" to="1235145933" type="passenger"/>
  <trip id="veh002_43" depart="35561" from="-226854874" to="446640439" type="passenger"/>
  <trip id="veh002_44" depart="30718" from="958852841" to="-50843173#3" type="passenger"/>
  <trip id="veh002_45" depart="31025" from="1235145933" to="50843170" type="passenger"/>
  <trip id="veh002_46" depart="32507" from="136014464#0" to="169004589#0" type="passenger"/>
  <trip id="veh002_47" depart="33692" from="240666074#0" to="900390006#1" type="passenger"/>
  <trip id="veh002_48" depart="31465" from="71293415#1" to="163764181#0" type="passenger"/>
  <trip id="veh002_49" depart="28839" from="238492234#0" to="504456844" type="passenger"/>
  <trip id="veh002_50" depart="34001" from="49228821#1" to="238492234#0" type="passenger"/>
  <trip id="veh002_51" depart="31930" from="169004589#0" to="457547879#4" type="passenger"/>
  <trip id="veh002_52" depart="34425" from="1235145933" to="39697113#3" type="passenger"/>
  <trip id="veh002_53" depart="30080" from="47386145" to="30620777" type="passenger"/>
  <trip id="veh002_54" depart="28841" from="169004589#0" to="-39750994#4" type="passenger"/>
  <trip id="veh002_55" depart="34511" from="958852841" to="39674883#1" type="passenger"/>
  <trip id="veh002_56" depart="30339" from="30620777" to="-52205556" type="passenger"/>
  <trip id="veh002_57" depart="29578" from="446640439" to="50843170" type="passenger"/>
  <trip id="veh002_58" depart="34028" from="-50383097#9" to="47386145" type="passenger"/>
  <trip id="veh002_59" depart="31101" from="39689392#0" to="9704194#7" type="passenger"/>
  <trip id="veh002_60" depart="34361" from="238492234#0" to="39697113#3" type="passenger"/>
  <trip id="veh002_61" depart="33239" from="39697113#3" to="-1225879469" type="passenger"/>
  <trip id="veh002_62" depart="34148" from="593755854" to="958852841" type="passenger"/>
  <trip id="veh002_63" depart="29080" from="39697113#3" to="85796876#1" type="passenger"/>
  <trip id="veh002_64" depart="28931" from="237271809#4" to="163764181#0" type="passenger"/>
  <trip id="veh002_65" depart="35243" from="-504456842" to="163764181#0" type="passenger"/>
  <trip id="veh002_66" depart="31036" from="504456844" to="39838789#2" type="passenger"/>
  <trip id="veh002_67" depart="30833" from="49219226" to="143996571#1" type="passenger"/>
  <trip id="veh002_68" depart="31254" from="47386124" to="-238492234#0" type="passenger"/>
  <trip id="veh002_69" depart="35328" from="-226855595#1" to="679060031" type="passenger"/>
  <trip id="veh002_70" depart="32733" from="504456844" to="238492234#0" type="passenger"/>
  <trip id="veh002_71" depart="32794" from="1092108127" to="1005394020#2" type="passenger"/>
  <trip id="veh002_72" depart="34442" from="438516309#1" to="237271809#4" type="passenger"/>
  <trip id="veh002_73" depart="31895" from="1235145933" to="1005394020#2" type="passenger"/>
  <trip id="veh002_74" depart="34454" from="-863774952#1" to="163764181#0" type="passenger"/>
  <trip id="veh002_75" depart="35655" from="-226854874" to="1016015052" type="passenger"/>
  <trip id="veh002_76" depart="35147" from="-1124366653" to="35422924#4" type="passenger"/>
  <trip id="veh002_77" depart="30643" from="-504456842" to="39658122#0" type="passenger"/>
  <trip id="veh002_78" depart="31036" from="47225638#0" to="-220770272" type="passenger"/>
  <trip id="veh002_79" depart="29597" from="446640439" to="169004589#0" type="passenger"/>
  <trip id="veh002_80" depart="31271" from="41862226#1" to="457547879#4" type="passenger"/>
  <trip id="veh002_81" depart="30527" from="39674883#1" to="1262057043#2" type="passenger"/>
  <trip id="veh002_82" depart="34620" from="10738871#0" to="958852841" type="passenger"/>
  <trip id="veh002_83" depart="32434" from="39697113#3" to="238492234#0" type="passenger"/>
  <trip id="veh002_84" depart="33644" from="47386145" to="41862226#1" type="passenger"/>
  <trip id="veh002_85" depart="30622" from="39658122#0" to="-504456842" type="passenger"/>
  <trip id="veh002_86" depart="34266" from="49171011#1" to="958852841" type="passenger"/>
  <trip id="veh002_87" depart="29288" from="39674883#1" to="958852841" type="passenger"/>
  <trip id="veh002_88" depart="34473" from="237271809#4" to="-863774952#1" type="passenger"/>
  <trip id="veh002_89" depart="30128" from="50843170" to="-141172463#0" type="passenger"/>
  <trip id="veh002_90" depart="30691" from="1005394020#2" to="-1225879469" type="passenger"/>
  <trip id="veh002_91" depart="35335" from="446640439" to="958852841" type="passenger"/>
  <trip id="veh002_92" depart="35090" from="-1387302975" to="39674883#1" type="passenger"/>
  <trip id="veh002_93" depart="34160" from="1262057048#0" to="958852841" type="passenger"/>
  <trip id="veh002_94" depart="31518" from="47386145" to="238492234#0" type="passenger"/>
  <trip id="veh002_95" depart="34566" from="1005394020#2" to="136014464#0" type="passenger"/>
  <trip id="veh002_96" depart="28883" from="446640439" to="-39658122#4" type="passenger"/>
  <trip id="veh002_97" depart="33371" from="-50383097#9" to="143996571#1" type="passenger"/>
  <trip id="veh002_98" depart="35325" from="39697113#3" to="163764181#0" type="passenger"/>
  <trip id="veh002_99" depart="33789" from="-50323232#2" to="30620777" type="passenger"/>
  <trip id="veh002_100" depart="34472" from="1235145933" to="1005394019#0" type="passenger"/>
  <trip id="veh002_101" depart="35578" from="-1387302975" to="1118804256#1" type="passenger"/>
  <trip id="veh002_102" depart="30555" from="593755854" to="1064476622#0" type="passenger"/>
  <trip id="veh002_103" depart="29723" from="-1080217656#1" to="446640439" type="passenger"/>
  <trip id="veh002_104" depart="29894" from="-40035992#5" to="1262057043#2" type="passenger"/>
  <trip id="veh002_105" depart="31053" from="-50371367#1" to="769245718" type="passenger"/>
  <trip id="veh002_106" depart="33188" from="-226854874" to="457547879#4" type="passenger"/>
  <trip id="veh002_107" depart="31926" from="958852841" to="39697113#3" type="passenger"/>
  <trip id="veh002_108" depart="30407" from="169004589#0" to="50843248" type="passenger"/>
  <trip id="veh002_109" depart="32476" from="47225638#0" to="169004589#0" type="passenger"/>
  <trip id="veh002_110" depart="30823" from="9704194#7" to="39674883#1" type="passenger"/>
  <trip id="veh002_111" depart="31413" from="-15676150#0" to="49171011#1" type="passenger"/>
  <trip id="veh002_112" depart="31498" from="39838789#2" to="47225638#0" type="passenger"/>
  <trip id="veh002_113" depart="32636" from="136014464#0" to="-50383097#9" type="passenger"/>
  <trip id="veh002_114" depart="33616" from="39697113#3" to="446640439" type="passenger"/>
  <trip id="veh002_115" depart="32752" from="71293415#1" to="-1068139751" type="passenger"/>
  <trip id="veh002_116" depart="34191" from="49171011#1" to="1262057048#0" type="passenger"/>
  <trip id="veh002_117" depart="30781" from="163764181#0" to="-226854874" type="passenger"/>
  <trip id="veh002_118" depart="33707" from="-39750994#4" to="85796876#1" type="passenger"/>
  <trip id="veh002_119" depart="28901" from="446640439" to="30620777" type="passenger"/>
  <trip id="veh002_120" depart="32813" from="39697113#3" to="-176637359#2" type="passenger"/>
  <trip id="veh002_121" depart="35994" from="-220770272" to="446640439" type="passenger"/>
  <trip id="veh002_122" depart="31051" from="169004589#0" to="958852841" type="passenger"/>
  <trip id="veh002_123" depart="32192" from="39674883#1" to="446640439" type="passenger"/>
  <trip id="veh002_124" depart="35176" from="-1080217656#1" to="1235145933" type="passenger"/>
  <trip id="veh002_125" depart="33167" from="-50323232#2" to="240666074#0" type="passenger"/>
  <trip id="veh002_126" depart="31264" from="136014464#0" to="1118804256#1" type="passenger"/>
  <trip id="veh002_127" depart="32042" from="1235145933" to="504456844" type="passenger"/>
  <trip id="veh002_128" depart="33301" from="-220770272" to="238492234#0" type="passenger"/>
  <trip id="veh002_129" depart="29137" from="39697113#3" to="71293415#1" type="passenger"/>
  <trip id="veh002_130" depart="29175" from="71293415#1" to="49228821#1" type="passenger"/>
  <trip id="veh002_131" depart="33296" from="1262057043#2" to="-176637359#2" type="passenger"/>
  <trip id="veh002_132" depart="32082" from="958852841" to="50843248" type="passenger"/>
  <trip id="veh002_133" depart="32887" from="446640439" to="-176637359#2" type="passenger"/>
  <trip id="veh002_134" depart="28895" from="958852841" to="238492234#0" type="passenger"/>
  <trip id="veh002_135" depart="34779" from="74450559" to="769245718" type="passenger"/>
  <trip id="veh002_136" depart="35227" from="-51296363" to="1067953247#1" type="passenger"/>
  <trip id="veh002_137" depart="31367" from="-226855595#1" to="-1225879469" type="passenger"/>
  <trip id="veh002_138" depart="30913" from="-50383097#9" to="-51296363" type="passenger"/>
  <trip id="veh002_139" depart="34717" from="39674883#1" to="163764181#0" type="passenger"/>
  <trip id="veh002_140" depart="30358" from="12088962#10" to="-176637359#2" type="passenger"/>
  <trip id="veh002_141" depart="30257" from="-220770272" to="-39658122#4" type="passenger"/>
  <trip id="veh002_142" depart="31133" from="958852841" to="40784659#1" type="passenger"/>
  <trip id="veh002_143" depart="31252" from="1005394019#0" to="1092372218" type="passenger"/>
  <trip id="veh002_144" depart="30425" from="39674883#1" to="238492234#0" type="passenger"/>
  <trip id="veh002_145" depart="31908" from="163764181#0" to="39697113#3" type="passenger"/>
  <trip id="veh002_146" depart="30788" from="1005394020#2" to="47386145" type="passenger"/>
  <trip id="veh002_147" depart="31826" from="1016015052" to="169004589#0" type="passenger"/>
  <trip id="veh002_148" depart="30049" from="-50383097#9" to="1262057043#2" type="passenger"/>
  <trip id="veh002_149" depart="31206" from="-220770272" to="47386145" type="passenger"/>
  <trip id="veh002_150" depart="35318" from="232359137" to="39658122#0" type="passenger"/>
  <trip id="veh002_151" depart="31134" from="240666074#0" to="40784659#1" type="passenger"/>
  <trip id="veh002_152" depart="32325" from="39674883#1" to="47386145" type="passenger"/>
  <trip id="veh002_153" depart="30238" from="163764181#0" to="136014464#0" type="passenger"/>
  <trip id="veh002_154" depart="34313" from="39697113#3" to="10738871#0" type="passenger"/>
  <trip id="veh002_155" depart="33014" from="238492234#0" to="-220770272" type="passenger"/>
  <trip id="veh002_156" depart="33803" from="238492234#0" to="-1387302975" type="passenger"/>
  <trip id="veh002_157" depart="29173" from="49228821#1" to="169004589#0" type="passenger"/>
  <trip id="veh002_158" depart="33958" from="1092108127" to="-52205556" type="passenger"/>
  <trip id="veh002_159" depart="29264" from="39674883#1" to="958852841" type="passenger"/>
  <trip id="veh002_160" depart="33905" from="1262057048#0" to="-15676150#0" type="passenger"/>
  <trip id="veh002_161" depart="30751" from="-39658122#4" to="-39750994#4" type="passenger"/>
  <trip id="veh002_162" depart="30205" from="39838789#2" to="39674883#1" type="passenger"/>
  <trip id="veh002_163" depart="35550" from="163764181#0" to="71293415#1" type="passenger"/>
  <trip id="veh002_164" depart="34834" from="446640439" to="-39750994#4" type="passenger"/>
  <trip id="veh002_165" depart="35790" from="-50371367#1" to="71293415#1" type="passenger"/>
  <trip id="veh002_166" depart="34095" from="169004589#0" to="74450559" type="passenger"/>
  <trip id="veh002_167" depart="32093" from="49228821#1" to="-50843173#3" type="passenger"/>
  <trip id="veh002_168" depart="31806" from="240666074#0" to="1064816194" type="passenger"/>
  <trip id="veh002_169" depart="32438" from="1067953247#1" to="169004589#0" type="passenger"/>
  <trip id="veh002_170" depart="29006" from="-39750994#4" to="446640439" type="passenger"/>
  <trip id="veh002_171" depart="33628" from="-39750994#4" to="504456844" type="passenger"/>
  <trip id="veh002_172" depart="30985" from="-504456842" to="504456844" type="passenger"/>
  <trip id="veh002_173" depart="33352" from="40040179#12" to="-50371367#1" type="passenger"/>
  <trip id="veh002_174" depart="34192" from="1064476622#0" to="10738871#0" type="passenger"/>
  <trip id="veh002_175" depart="32128" from="143996571#1" to="85796876#1" type="passenger"/>
  <trip id="veh002_176" depart="32003" from="237271809#4" to="-176637359#2" type="passenger"/>
  <trip id="veh002_177" depart="32433" from="-52205556" to="163764181#0" type="passenger"/>
  <trip id="veh002_178" depart="30676" from="-1068139751" to="1064476622#0" type="passenger"/>
  <trip id="veh002_179" depart="34872" from="238492234#0" to="39658122#0" type="passenger"/>
  <trip id="veh002_180" depart="31852" from="1092372218" to="504456844" type="passenger"/>
  <trip id="veh002_181" depart="34262" from="-1225879469" to="9178721#3" type="passenger"/>
  <trip id="veh002_182" depart="34140" from="49219226" to="-226855595#1" type="passenger"/>
  <trip id="veh002_183" depart="29808" from="47225638#0" to="1272337500" type="passenger"/>
  <trip id="veh002_184" depart="35566" from="-50323232#2" to="-51296363" type="passenger"/>
  <trip id="veh002_185" depart="30715" from="-40035992#5" to="1064816194" type="passenger"/>
  <trip id="veh002_186" depart="32201" from="504456844" to="85796876#1" type="passenger"/>
  <trip id="veh002_187" depart="29730" from="39697113#3" to="-1225879469" type="passenger"/>
  <trip id="veh002_188" depart="31348" from="-39750994#4" to="39697113#3" type="passenger"/>
  <trip id="veh002_189" depart="35439" from="238492234#0" to="-1080217656#1" type="passenger"/>
  <trip id="veh002_190" depart="33094" from="900390006#1" to="238492234#0" type="passenger"/>
  <trip id="veh002_191" depart="29065" from="143996571#1" to="1067953247#1" type="passenger"/>
  <trip id="veh002_192" depart="35779" from="-50383097#9" to="1262057048#0" type="passenger"/>
  <trip id="veh002_193" depart="34675" from="240666074#0" to="-50843173#3" type="passenger"/>
  <trip id="veh002_194" depart="32063" from="240666074#0" to="238492234#0" type="passenger"/>
  <trip id="veh002_195" depart="35273" from="169004589#0" to="-39750994#4" type="passenger"/>
  <trip id="veh002_196" depart="31386" from="1092108127" to="9178721#3" type="passenger"/>
  <trip id="veh002_197" depart="34851" from="39697113#3" to="457547879#4" type="passenger"/>
  <trip id="veh002_198" depart="30597" from="769245718" to="1092108127" type="passenger"/>
  <trip id="veh002_199" depart="33846" from="1262057048#0" to="238492234#0" type="passenger"/>
  <trip id="veh002_200" depart="30792" from="958852841" to="1092372218" type="passenger"/>
  <trip id="veh002_201" depart="31242" from="-50843173#3" to="39674883#1" type="passenger"/>
  <trip id="veh002_202" depart="32233" from="47386124" to="41862226#1" type="passenger"/>
  <trip id="veh002_203" depart="33500" from="-39750994#4" to="1005394019#0" type="passenger"/>
  <trip id="veh002_204" depart="33826" from="1005394019#0" to="446640439" type="passenger"/>
  <trip id="veh002_205" depart="33488" from="39697113#3" to="958852841" type="passenger"/>
  <trip id="veh002_206" depart="32301" from="47281535" to="1067953247#1" type="passenger"/>
  <trip id="veh002_207" depart="32499" from="-1387302975" to="136014464#0" type="passenger"/>
  <trip id="veh002_208" depart="35284" from="39697113#3" to="-39750994#4" type="passenger"/>
  <trip id="veh002_209" depart="30746" from="47225638#0" to="1005394019#0" type="passenger"/>
  <trip id="veh002_210" depart="35841" from="40040179#12" to="1067953247#1" type="passenger"/>
  <trip id="veh002_211" depart="35953" from="1064476622#0" to="504456844" type="passenger"/>
  <trip id="veh002_212" depart="35573" from="457547879#4" to="238492234#0" type="passenger"/>
  <trip id="veh002_213" depart="29972" from="-50371367#1" to="163764181#0" type="passenger"/>
  <trip id="veh002_214" depart="34017" from="446640439" to="1005394020#2" type="passenger"/>
  <trip id="veh002_215" depart="29137" from="169004589#0" to="136752699" type="passenger"/>
  <trip id="veh002_216" depart="32985" from="39697113#3" to="40784659#1" type="passenger"/>
  <trip id="veh002_217" depart="32711" from="-176637359#2" to="769245718" type="passenger"/>
  <trip id="veh002_218" depart="31747" from="-39750994#4" to="457547879#4" type="passenger"/>
  <trip id="veh002_219" depart="29302" from="47386145" to="49228821#1" type="passenger"/>
  <trip id="veh002_220" depart="31824" from="1262057048#0" to="1092108127" type="passenger"/>
  <trip id="veh002_221" depart="35496" from="40784659#1" to="-504456842" type="passenger"/>
  <trip id="veh002_222" depart="31663" from="958852841" to="1092108127" type="passenger"/>
  <trip id="veh002_223" depart="29448" from="163764181#0" to="169004589#0" type="passenger"/>
  <trip id="veh002_224" depart="31105" from="-504456842" to="169004589#0" type="passenger"/>
  <trip id="veh002_225" depart="31888" from="1387458837" to="74450559" type="passenger"/>
  <trip id="veh002_226" depart="30395" from="74450559" to="169004589#0" type="passenger"/>
  <trip id="veh002_227" depart="31575" from="1262057048#0" to="163764181#0" type="passenger"/>
  <trip id="veh002_228" depart="31764" from="49171011#1" to="1067953247#1" type="passenger"/>
  <trip id="veh002_229" depart="32571" from="143996571#1" to="163764181#0" type="passenger"/>
  <trip id="veh002_230" depart="29907" from="438516309#1" to="-126724514#0" type="passenger"/>
  <trip id="veh002_231" depart="35230" from="12088962#10" to="504456844" type="passenger"/>
  <trip id="veh002_232" depart="33077" from="1064476622#0" to="446640439" type="passenger"/>
  <trip id="veh002_233" depart="28982" from="-220770272" to="-1225879469" type="passenger"/>
  <trip id="veh002_234" depart="32459" from="-1124366653" to="-220770272" type="passenger"/>
  <trip id="veh002_235" depart="34783" from="39697113#3" to="-39750994#4" type="passenger"/>
  <trip id="veh002_236" depart="34057" from="-39750994#4" to="238492234#0" type="passenger"/>
  <trip id="veh002_237" depart="33729" from="136014464#0" to="958852841" type="passenger"/>
  <trip id="veh002_238" depart="30541" from="-220770272" to="238492234#0" type="passenger"/>
  <trip id="veh002_239" depart="34431" from="-176637359#2" to="958852841" type="passenger"/>
  <trip id="veh002_240" depart="31933" from="49171011#1" to="1005394020#2" type="passenger"/>
  <trip id="veh002_241" depart="32182" from="-1225879469" to="240666074#0" type="passenger"/>
  <trip id="veh002_242" depart="28961" from="49219226" to="1005394019#0" type="passenger"/>
  <trip id="veh002_243" depart="29401" from="1092372218" to="-51296363" type="passenger"/>
  <trip id="veh002_244" depart="34004" from="1262057048#0" to="958852841" type="passenger"/>
  <trip id="veh002_245" depart="30753" from="47386145" to="41862226#1" type="passenger"/>
  <trip id="veh002_246" depart="29417" from="39689392#0" to="240666074#0" type="passenger"/>
  <trip id="veh002_247" depart="34284" from="-39750994#4" to="1064816194" type="passenger"/>
  <trip id="veh002_248" depart="30298" from="240666074#0" to="39838789#2" type="passenger"/>
  <trip id="veh002_249" depart="34052" from="958852841" to="41862226#1" type="passenger"/>
  <trip id="veh002_250" depart="30459" from="-40035904#1" to="39658122#0" type="passenger"/>
  <trip id="veh002_251" depart="32677" from="-863774952#1" to="504456844" type="passenger"/>
  <trip id="veh002_252" depart="33977" from="1235145933" to="457547879#4" type="passenger"/>
  <trip id="veh002_253" depart="30386" from="958852841" to="47386124" type="passenger"/>
  <trip id="veh002_254" depart="34192" from="50843248" to="958852841" type="passenger"/>
  <trip id="veh002_255" depart="34930" from="238492234#0" to="-52205556" type="passenger"/>
  <trip id="veh002_256" depart="33181" from="85796876#1" to="1262057048#0" type="passenger"/>
  <trip id="veh002_257" depart="28904" from="-1080217656#1" to="769245718" type="passenger"/>
  <trip id="veh002_258" depart="31539" from="238492234#0" to="-1080217656#1" type="passenger"/>
  <trip id="veh002_259" depart="35266" from="50843248" to="-226855595#1" type="passenger"/>
  <trip id="veh002_260" depart="32773" from="9178721#3" to="39697113#3" type="passenger"/>
  <trip id="veh002_261" depart="31442" from="1118804256#1" to="-52205556" type="passenger"/>
  <trip id="veh002_262" depart="34480" from="-50371367#1" to="-451728952#4" type="passenger"/>
  <trip id="veh002_263" depart="33681" from="143996571#1" to="446640439" type="passenger"/>
  <trip id="veh002_264" depart="32817" from="85796876#1" to="1262057043#2" type="passenger"/>
  <trip id="veh002_265" depart="31080" from="1092108127" to="-50383097#9" type="passenger"/>
  <trip id="veh002_266" depart="29037" from="-504456842" to="-226854874" type="passenger"/>
  <trip id="veh002_267" depart="33466" from="-1080217656#1" to="39674883#1" type="passenger"/>
  <trip id="veh002_268" depart="33645" from="9704194#7" to="-40035992#5" type="passenger"/>
  <trip id="veh002_269" depart="33560" from="74450559" to="958852841" type="passenger"/>
  <trip id="veh002_270" depart="32095" from="504456844" to="-40035904#1" type="passenger"/>
  <trip id="veh002_271" depart="31201" from="85796876#1" to="-504456842" type="passenger"/>
  <trip id="veh002_272" depart="34116" from="1118804256#1" to="163764181#0" type="passenger"/>
  <trip id="veh002_273" depart="35265" from="-40035992#5" to="39697113#3" type="passenger"/>
  <trip id="veh002_274" depart="31854" from="-50371367#1" to="237271809#4" type="passenger"/>
  <trip id="veh002_275" depart="32157" from="39674883#1" to="1235145933" type="passenger"/>
  <trip id="veh002_276" depart="35147" from="593755854" to="39674883#1" type="passenger"/>
  <trip id="veh002_277" depart="33396" from="1005394020#2" to="49228821#1" type="passenger"/>
  <trip id="veh002_278" depart="31271" from="136014464#0" to="1235145933" type="passenger"/>
  <trip id="veh002_279" depart="30184" from="-51296363" to="163764181#0" type="passenger"/>
  <trip id="veh002_280" depart="33317" from="-126724514#0" to="593755854" type="passenger"/>
  <trip id="veh002_281" depart="32602" from="39697113#3" to="41862226#1" type="passenger"/>
  <trip id="veh002_282" depart="30769" from="1092372218" to="-52205556" type="passenger"/>
  <trip id="veh002_283" depart="34954" from="-176637359#2" to="593755854" type="passenger"/>
  <trip id="veh002_284" depart="31684" from="438516309#1" to="-52205556" type="passenger"/>
  <trip id="veh002_285" depart="34563" from="-141172463#0" to="-50323232#2" type="passenger"/>
  <trip id="veh002_286" depart="29678" from="-1068139751" to="-176637359#2" type="passenger"/>
  <trip id="veh002_287" depart="31450" from="238492234#0" to="1064816194" type="passenger"/>
  <trip id="veh002_288" depart="35132" from="-176637359#2" to="-1387302975" type="passenger"/>
  <trip id="veh002_289" depart="35148" from="958852841" to="136014464#0" type="passenger"/>
  <trip id="veh002_290" depart="34003" from="47386145" to="163764181#0" type="passenger"/>
  <trip id="veh002_291" depart="33641" from="163764181#0" to="74450559" type="passenger"/>
  <trip id="veh002_292" depart="32202" from="47386145" to="49219226" type="passenger"/>
  <trip id="veh002_293" depart="29115" from="85796876#1" to="1064816194" type="passenger"/>
  <trip id="veh002_294" depart="30578" from="-50383097#9" to="238492234#0" type="passenger"/>
  <trip id="veh002_295" depart="29449" from="1067953247#1" to="-1225879469" type="passenger"/>
  <trip id="veh002_296" depart="34698" from="958852841" to="39658122#0" type="passenger"/>
  <trip id="veh002_297" depart="34354" from="12088962#10" to="40784659#1" type="passenger"/>
  <trip id="veh002_298" depart="30854" from="457547879#4" to="-39658122#4" type="passenger"/>
  <trip id="veh002_299" depart="29159" from="169004589#0" to="504456844" type="passenger"/>
  <trip id="veh002_300" depart="29269" from="958852841" to="-1387302975" type="passenger"/>
  <trip id="veh002_301" depart="34864" from="47386145" to="424580470#5" type="passenger"/>
  <trip id="veh002_302" depart="29575" from="-504456842" to="30620777" type="passenger"/>
  <trip id="veh002_303" depart="31852" from="238492234#0" to="163764181#0" type="passenger"/>
  <trip id="veh002_304" depart="31101" from="47386145" to="1092372218" type="passenger"/>
  <trip id="veh002_305" depart="34335" from="40784659#1" to="-50383097#9" type="passenger"/>
  <trip id="veh002_306" depart="32128" from="169004589#0" to="1005394020#2" type="passenger"/>
  <trip id="veh002_307" depart="30209" from="-504456842" to="50843170" type="passenger"/>
  <trip id="veh002_308" depart="35568" from="-39658122#4" to="237271809#4" type="passenger"/>
  <trip id="veh002_309" depart="29177" from="39697113#3" to="424580470#5" type="passenger"/>
  <trip id="veh002_310" depart="29788" from="446640439" to="40784659#1" type="passenger"/>
  <trip id="veh002_311" depart="32041" from="1092372218" to="238492234#0" type="passenger"/>
  <trip id="veh002_312" depart="30546" from="446640439" to="-50371367#1" type="passenger"/>
  <trip id="veh002_313" depart="34288" from="238492234#0" to="457547879#4" type="passenger"/>
  <trip id="veh002_314" depart="35811" from="47386145" to="169004589#0" type="passenger"/>
  <trip id="veh002_315" depart="30764" from="240666074#0" to="39697113#3" type="passenger"/>
  <trip id="veh002_316" depart="32851" from="50843170" to="1068144844" type="passenger"/>
  <trip id="veh002_317" depart="30410" from="1016015052" to="1272337500" type="passenger"/>
  <trip id="veh002_318" depart="29505" from="1235145933" to="-451728952#4" type="passenger"/>
  <trip id="veh002_319" depart="31448" from="136014464#0" to="446640439" type="passenger"/>
  <trip id="veh002_320" depart="31034" from="39697113#3" to="-39750994#4" type="passenger"/>
  <trip id="veh002_321" depart="33492" from="74450559" to="35422924#4" type="passenger"/>
  <trip id="veh002_322" depart="29135" from="169004589#0" to="47386145" type="passenger"/>
  <trip id="veh002_323" depart="32668" from="50843248" to="39697113#3" type="passenger"/>