<additional>
  <edgeData id="dump" begin="0" end="86400" freq="10"
            file="edgedata.xml" excludeEmpty="false"/>
</additional>
