<trips>
  <trip id="veh001_0" depart="26379" from="41866489#1" to="237271809#3" type="passenger"/>
  <trip id="veh001_1" depart="30921" from="1092600147#1" to="1064853456" type="passenger"/>
  <trip id="veh001_2" depart="29281" from="666271191" to="1207401650" type="passenger"/>
  <trip id="veh001_3" depart="29923" from="-72083131" to="47386145" type="passenger"/>
  <trip id="veh001_4" depart="29680" from="1064853456" to="-40784652#0" type="passenger"/>
  <trip id="veh001_5" depart="28427" from="1192417710" to="24446738#3" type="passenger"/>
  <trip id="veh001_6" depart="31919" from="44472940#0" to="-40784652#0" type="passenger"/>
  <trip id="veh001_7" depart="26515" from="240640942#1" to="1363506394#4" type="passenger"/>
  <trip id="veh001_8" depart="30092" from="47386145" to="-768805831#1" type="passenger"/>
  <trip id="veh001_9" depart="26689" from="24465651#1" to="900390006#1" type="passenger"/>
  <trip id="veh001_10" depart="25701" from="-70662727#0" to="50843196#0" type="passenger"/>
  <trip id="veh001_11" depart="26557" from="159538498#1" to="50325553" type="passenger"/>
  <trip id="veh001_12" depart="29478" from="610738423#1" to="145007016" type="passenger"/>
  <trip id="veh001_13" depart="31864" from="1091984826#0" to="900386124#0" type="passenger"/>
  <trip id="veh001_14" depart="30764" from="446640439" to="-769600704" type="passenger"/>
  <trip id="veh001_15" depart="28947" from="50325553" to="47283778#2" type="passenger"/>
  <trip id="veh001_16" depart="27913" from="237271809#2" to="177743535#0" type="passenger"/>
  <trip id="veh001_17" depart="28794" from="610738424#0" to="968332515#0" type="passenger"/>
  <trip id="veh001_18" depart="31596" from="1363506394#4" to="-40784652#0" type="passenger"/>
  <trip id="veh001_19" depart="27396" from="-70662723#0" to="10632130" type="passenger"/>
  <trip id="veh001_20" depart="30151" from="1064853456" to="159538498#1" type="passenger"/>
  <trip id="veh001_21" depart="30628" from="50843198#3" to="240007894#1" type="passenger"/>
  <trip id="veh001_22" depart="31582" from="240034070#0" to="47386145" type="passenger"/>
  <trip id="veh001_23" depart="28755" from="159942190" to="137220971" type="passenger"/>
  <trip id="veh001_24" depart="30130" from="50843196#0" to="1092600147#1" type="passenger"/>
  <trip id="veh001_25" depart="30483" from="-768805831#1" to="227960847#0" type="passenger"/>
  <trip id="veh001_26" depart="26462" from="-1273359359#1" to="968332515#0" type="passenger"/>
  <trip id="veh001_27" depart="30853" from="446640439" to="-70662723#0" type="passenger"/>
  <trip id="veh001_28" depart="25511" from="998773447#1" to="1119184638#0" type="passenger"/>
  <trip id="veh001_29" depart="31683" from="1363506394#4" to="240034070#0" type="passenger"/>
  <trip id="veh001_30" depart="31217" from="24465651#1" to="240640942#1" type="passenger"/>
  <trip id="veh001_31" depart="31931" from="175760666" to="-768805831#1" type="passenger"/>
  <trip id="veh001_32" depart="31075" from="1192417710" to="610738424#0" type="passenger"/>
  <trip id="veh001_33" depart="31378" from="998773447#1" to="240666074#4" type="passenger"/>
  <trip id="veh001_34" depart="32222" from="159942190" to="47283778#2" type="passenger"/>
  <trip id="veh001_35" depart="25473" from="24446738#3" to="-1273359359#1" type="passenger"/>
  <trip id="veh001_36" depart="30707" from="1326094907#0" to="-226907342#1" type="passenger"/>
  <trip id="veh001_37" depart="29915" from="44121335#0" to="-10738871#0" type="passenger"/>
  <trip id="veh001_38" depart="28548" from="68868377" to="-232359138" type="passenger"/>
  <trip id="veh001_39" depart="28042" from="177743535#0" to="610738424#0" type="passenger"/>
  <trip id="veh001_40" depart="31616" from="50325553" to="998773447#1" type="passenger"/>
  <trip id="veh001_41" depart="25618" from="40784659#1" to="159942190" type="passenger"/>
  <trip id="veh001_42" depart="27018" from="-50323229" to="1092600147#1" type="passenger"/>
  <trip id="veh001_43" depart="28343" from="220775319" to="237271809#2" type="passenger"/>
  <trip id="veh001_44" depart="25697" from="40784659#0" to="-70662727#0" type="passenger"/>
  <trip id="veh001_45" depart="25422" from="1207401650" to="50325553" type="passenger"/>
  <trip id="veh001_46" depart="32137" from="173471112" to="10632130" type="passenger"/>
  <trip id="veh001_47" depart="32253" from="47386145" to="177743535#0" type="passenger"/>
  <trip id="veh001_48" depart="28030" from="47386145" to="240034070#0" type="passenger"/>
  <trip id="veh001_49" depart="31460" from="240666074#4" to="240640942#1" type="passenger"/>
  <trip id="veh001_50" depart="26088" from="-70662727#0" to="-1092108194" type="passenger"/>
  <trip id="veh001_51" depart="30299" from="-49073765#0" to="240640942#1" type="passenger"/>
  <trip id="veh001_52" depart="26064" from="9704194#4" to="-70662727#0" type="passenger"/>
  <trip id="veh001_53" depart="27890" from="175760666" to="1064853456" type="passenger"/>
  <trip id="veh001_54" depart="29631" from="-70662723#0" to="998773447#1" type="passenger"/>
  <trip id="veh001_55" depart="26835" from="446640439" to="237271809#3" type="passenger"/>
  <trip id="veh001_56" depart="29122" from="-1092108194" to="1326094907#0" type="passenger"/>
  <trip id="veh001_57" depart="30504" from="-49073765#0" to="900390006#1" type="passenger"/>
  <trip id="veh001_58" depart="27982" from="666271191" to="760475718" type="passenger"/>
  <trip id="veh001_59" depart="31176" from="240640942#1" to="1085107695" type="passenger"/>
  <trip id="veh001_60" depart="26431" from="-226907342#1" to="1092600147#1" type="passenger"/>
  <trip id="veh001_61" depart="27649" from="431876176" to="968332515#0" type="passenger"/>
  <trip id="veh001_62" depart="27723" from="159942190" to="24465651#1" type="passenger"/>
  <trip id="veh001_63" depart="29693" from="177743535#0" to="-33683398#2" type="passenger"/>
  <trip id="veh001_64" depart="28704" from="24623782#1" to="998773447#1" type="passenger"/>
  <trip id="veh001_65" depart="29911" from="159942190" to="47386145" type="passenger"/>
  <trip id="veh001_66" depart="30930" from="50843198#3" to="1091984826#0" type="passenger"/>
  <trip id="veh001_67" depart="30167" from="50323222#1" to="40784659#0" type="passenger"/>
  <trip id="veh001_68" depart="31744" from="-33683398#2" to="50323222#1" type="passenger"/>
  <trip id="veh001_69" depart="31507" from="-10632130" to="-49073765#0" type="passenger"/>
  <trip id="veh001_70" depart="26817" from="177743535#0" to="1068434254#0" type="passenger"/>
  <trip id="veh001_71" depart="29431" from="-72083131" to="159942190" type="passenger"/>
  <trip id="veh001_72" depart="28985" from="50325553" to="44472940#0" type="passenger"/>
  <trip id="veh001_73" depart="28955" from="12088974#3" to="50843198#3" type="passenger"/>
  <trip id="veh001_74" depart="26341" from="1119184638#0" to="1064799814" type="passenger"/>
  <trip id="veh001_75" depart="27926" from="240034070#0" to="610738424#0" type="passenger"/>
  <trip id="veh001_76" depart="30920" from="137220971" to="237271809#2" type="passenger"/>
  <trip id="veh001_77" depart="32049" from="240007894#1" to="610738424#0" type="passenger"/>
  <trip id="veh001_78" depart="28993" from="666271191" to="-1092108194" type="passenger"/>
  <trip id="veh001_79" depart="28759" from="159538498#1" to="610738423#1" type="passenger"/>
  <trip id="veh001_80" depart="29518" from="-1092108194" to="-232359138" type="passenger"/>
  <trip id="veh001_81" depart="27681" from="50323222#1" to="-769600704" type="passenger"/>
  <trip id="veh001_82" depart="26949" from="1192417710" to="237271809#2" type="passenger"/>
  <trip id="veh001_83" depart="30459" from="240640942#1" to="237271809#3" type="passenger"/>
  <trip id="veh001_84" depart="26754" from="446640439" to="159942190" type="passenger"/>
  <trip id="veh001_85" depart="29548" from="240666074#4" to="47386145" type="passenger"/>
  <trip id="veh001_86" depart="26068" from="159538498#1" to="-1092108194" type="passenger"/>
  <trip id="veh001_87" depart="26295" from="40784659#1" to="47386145" type="passenger"/>
  <trip id="veh001_88" depart="29304" from="240034070#0" to="72233381" type="passenger"/>
  <trip id="veh001_89" depart="26462" from="-33683398#2" to="-1092108194" type="passenger"/>
  <trip id="veh001_90" depart="25620" from="47386111#1" to="47386145" type="passenger"/>
  <trip id="veh001_91" depart="28961" from="1064853456" to="1119184638#0" type="passenger"/>
  <trip id="veh001_92" depart="26072" from="47386111#1" to="998773447#1" type="passenger"/>
  <trip id="veh001_93" depart="29144" from="175760666" to="159942190" type="passenger"/>
  <trip id="veh001_94" depart="30663" from="40784659#0" to="1324706272" type="passenger"/>
  <trip id="veh001_95" depart="25918" from="159942190" to="1207401650" type="passenger"/>
  <trip id="veh001_96" depart="29127" from="-10738871#0" to="998773447#1" type="passenger"/>
  <trip id="veh001_97" depart="25257" from="1363506394#4" to="159538498#1" type="passenger"/>
  <trip id="veh001_98" depart="25551" from="50843200#1" to="610738424#0" type="passenger"/>
  <trip id="veh001_99" depart="27833" from="-1273359359#1" to="47386111#1" type="passenger"/>
  <trip id="veh001_100" depart="26879" from="159538498#1" to="50323222#1" type="passenger"/>
  <trip id="veh001_101" depart="29007" from="610738424#0" to="240640942#1" type="passenger"/>
  <trip id="veh001_102" depart="25882" from="50325553" to="50323222#1" type="passenger"/>
  <trip id="veh001_103" depart="26847" from="1085107695" to="240034070#0" type="passenger"/>
  <trip id="veh001_104" depart="31545" from="1091984826#0" to="-1092108194" type="passenger"/>
  <trip id="veh001_105" depart="26014" from="68868377" to="177743535#0" type="passenger"/>
  <trip id="veh001_106" depart="32356" from="-70662723#0" to="50843198#3" type="passenger"/>
  <trip id="veh001_107" depart="31741" from="47386145" to="-40784652#0" type="passenger"/>
  <trip id="veh001_108" depart="27479" from="1119184635#1" to="1085107695" type="passenger"/>
  <trip id="veh001_109" depart="26578" from="68868377" to="159538498#1" type="passenger"/>
  <trip id="veh001_110" depart="31751" from="50323222#1" to="610738424#0" type="passenger"/>
  <trip id="veh001_111" depart="30981" from="446640439" to="-769600704" type="passenger"/>
  <trip id="veh001_112" depart="28964" from="-40784652#0" to="968332515#0" type="passenger"/>
  <trip id="veh001_113" depart="28824" from="1064853456" to="-33683398#2" type="passenger"/>
  <trip id="veh001_114" depart="29172" from="72233381" to="40784659#1" type="passenger"/>
  <trip id="veh001_115" depart="31910" from="40784659#0" to="47386145" type="passenger"/>
  <trip id="veh001_116" depart="29939" from="1363506394#4" to="136232037#0" type="passenger"/>
  <trip id="veh001_117" depart="25818" from="44472940#0" to="10632130" type="passenger"/>
  <trip id="veh001_118" depart="26207" from="1119184638#0" to="-240666072#0" type="passenger"/>
  <trip id="veh001_119" depart="30863" from="175760666" to="40784659#0" type="passenger"/>
  <trip id="veh001_120" depart="28431" from="1119184635#1" to="-47279971" type="passenger"/>
  <trip id="veh001_121" depart="25290" from="1068434254#0" to="-33683398#2" type="passenger"/>
  <trip id="veh001_122" depart="28406" from="-1092108194" to="1064853456" type="passenger"/>
  <trip id="veh001_123" depart="29484" from="-1273359359#1" to="175760666" type="passenger"/>
  <trip id="veh001_124" depart="32321" from="593755854" to="1119184635#1" type="passenger"/>
  <trip id="veh001_125" depart="26858" from="40299122#2" to="-10738871#0" type="passenger"/>
  <trip id="veh001_126" depart="29749" from="159942190" to="240034070#0" type="passenger"/>
  <trip id="veh001_127" depart="25383" from="177743535#0" to="-47279971" type="passenger"/>
  <trip id="veh001_128" depart="27827" from="227960847#0" to="1192417710" type="passenger"/>
  <trip id="veh001_129" depart="29648" from="1064853456" to="968332515#0" type="passenger"/>
  <trip id="veh001_130" depart="25924" from="173471112" to="159942190" type="passenger"/>
  <trip id="veh001_131" depart="25363" from="136232037#0" to="175760666" type="passenger"/>
  <trip id="veh001_132" depart="29612" from="40299122#2" to="-1092108194" type="passenger"/>
  <trip id="veh001_133" depart="27714" from="610738423#1" to="227960847#0" type="passenger"/>
  <trip id="veh001_134" depart="28457" from="136232037#0" to="-769600704" type="passenger"/>
  <trip id="veh001_135" depart="27760" from="610738423#1" to="900390006#1" type="passenger"/>
  <trip id="veh001_136" depart="31261" from="50843200#1" to="50843196#0" type="passenger"/>
  <trip id="veh001_137" depart="27908" from="1085107695" to="240640942#1" type="passenger"/>
  <trip id="veh001_138" depart="26098" from="137220971" to="1207401650" type="passenger"/>
  <trip id="veh001_139" depart="26095" from="47386145" to="159538498#1" type="passenger"/>
  <trip id="veh001_140" depart="26621" from="1207401650" to="72233381" type="passenger"/>
  <trip id="veh001_141" depart="27383" from="1085107695" to="593755854" type="passenger"/>
  <trip id="veh001_142" depart="26035" from="240666074#4" to="50323222#1" type="passenger"/>
  <trip id="veh001_143" depart="26087" from="1092600147#1" to="610738424#0" type="passenger"/>
  <trip id="veh001_144" depart="29387" from="666271191" to="1091984826#0" type="passenger"/>
  <trip id="veh001_145" depart="29146" from="159942190" to="-33683398#2" type="passenger"/>
  <trip id="veh001_146" depart="30615" from="159942190" to="237271809#2" type="passenger"/>
  <trip id="veh001_147" depart="28498" from="666271191" to="-70662727#0" type="passenger"/>
  <trip id="veh001_148" depart="30371" from="-40784652#0" to="41866489#1" type="passenger"/>
  <trip id="veh001_149" depart="26758" from="-768805831#1" to="44472940#0" type="passenger"/>
  <trip id="veh001_150" depart="30530" from="-33683398#2" to="-40784652#0" type="passenger"/>
  <trip id="veh001_151" depart="29399" from="-70662723#0" to="47386145" type="passenger"/>
  <trip id="veh001_152" depart="25262" from="1119184638#0" to="9704194#4" type="passenger"/>
  <trip id="veh001_153" depart="29756" from="900390006#1" to="50323222#1" type="passenger"/>
  <trip id="veh001_154" depart="31009" from="-70662723#0" to="1091984826#0" type="passenger"/>
  <trip id="veh001_155" depart="32357" from="175760666" to="900386124#0" type="passenger"/>
  <trip id="veh001_156" depart="32336" from="44472940#0" to="-70662723#0" type="passenger"/>
  <trip id="veh001_157" depart="28906" from="240640942#1" to="240007894#1" type="passenger"/>
  <trip id="veh001_158" depart="26410" from="1092600147#1" to="610738424#0" type="passenger"/>
  <trip id="veh001_159" depart="31746" from="1119184635#1" to="136232037#0" type="passenger"/>
  <trip id="veh001_160" depart="29896" from="1326094907#0" to="240666074#4" type="passenger"/>
  <trip id="veh001_161" depart="25577" from="1119184638#0" to="47386145" type="passenger"/>
  <trip id="veh001_162" depart="27652" from="-769600704" to="1326094907#0" type="passenger"/>
  <trip id="veh001_163" depart="26308" from="998773447#1" to="-49073765#0" type="passenger"/>
  <trip id="veh001_164" depart="31373" from="47386145" to="50323222#1" type="passenger"/>
  <trip id="veh001_165" depart="28866" from="240007894#1" to="1064853456" type="passenger"/>
  <trip id="veh001_166" depart="30686" from="-238219473" to="40784659#0" type="passenger"/>
  <trip id="veh001_167" depart="31399" from="177743535#0" to="-232359138" type="passenger"/>
  <trip id="veh001_168" depart="28604" from="240034070#0" to="240640942#1" type="passenger"/>
  <trip id="veh001_169" depart="28434" from="431876176" to="900390006#1" type="passenger"/>
  <trip id="veh001_170" depart="30068" from="1363506394#4" to="240007894#1" type="passenger"/>
  <trip id="veh001_171" depart="30033" from="-49073765#0" to="900386124#0" type="passenger"/>
  <trip id="veh001_172" depart="29838" from="177743535#0" to="240007894#1" type="passenger"/>
  <trip id="veh001_173" depart="32061" from="1092600147#1" to="220775319" type="passenger"/>
  <trip id="veh001_174" depart="26429" from="-769600704" to="446640439" type="passenger"/>
  <trip id="veh001_175" depart="30508" from="40784659#0" to="177743535#0" type="passenger"/>
  <trip id="veh001_176" depart="31980" from="610738424#0" to="159942190" type="passenger"/>
  <trip id="veh001_177" depart="25307" from="-769600704" to="159942190" type="passenger"/>
  <trip id="veh001_178" depart="29493" from="-70662727#0" to="177743535#0" type="passenger"/>
  <trip id="veh001_179" depart="29712" from="1363506394#4" to="47267014#1" type="passenger"/>
  <trip id="veh001_180" depart="27890" from="446640439" to="1064853456" type="passenger"/>
  <trip id="veh001_181" depart="27085" from="39659484" to="-1092108194" type="passenger"/>
  <trip id="veh001_182" depart="27808" from="24623782#1" to="50843200#1" type="passenger"/>
  <trip id="veh001_183" depart="30904" from="-769600704" to="-10632130" type="passenger"/>
  <trip id="veh001_184" depart="25448" from="610738424#0" to="-70662727#0" type="passenger"/>
  <trip id="veh001_185" depart="27517" from="1324706272" to="610738424#0" type="passenger"/>
  <trip id="veh001_186" depart="25516" from="175760666" to="446640439" type="passenger"/>
  <trip id="veh001_187" depart="32195" from="-33683398#2" to="-70662723#0" type="passenger"/>
  <trip id="veh001_188" depart="32042" from="50325553" to="40140141#0" type="passenger"/>
  <trip id="veh001_189" depart="25675" from="240640942#1" to="-238219473" type="passenger"/>
  <trip id="veh001_190" depart="29867" from="177743535#0" to="159942190" type="passenger"/>
  <trip id="veh001_191" depart="29504" from="12088974#3" to="220775319" type="passenger"/>
  <trip id="veh001_192" depart="31818" from="-1092108194" to="1020246871" type="passenger"/>
  <trip id="veh001_193" depart="27062" from="173471112" to="1326094907#0" type="passenger"/>
  <trip id="veh001_194" depart="31310" from="610738424#0" to="177743535#0" type="passenger"/>
  <trip id="veh001_195" depart="29732" from="24623782#1" to="12088974#3" type="passenger"/>
  <trip id="veh001_196" depart="28090" from="-238219473" to="10632130" type="passenger"/>
  <trip id="veh001_197" depart="25957" from="10629709#0" to="24446738#3" type="passenger"/>
  <trip id="veh001_198" depart="31816" from="72233381" to="-70662723#0" type="passenger"/>
  <trip id="veh001_199" depart="29043" from="177743535#0" to="1091984826#0" type="passenger"/>
  <trip id="veh001_200" depart="32090" from="47386111#1" to="-1273359359#1" type="passenger"/>
  <trip id="veh001_201" depart="26901" from="50323222#1" to="145007016" type="passenger"/>
  <trip id="veh001_202" depart="28720" from="1326094907#0" to="610738423#1" type="passenger"/>
  <trip id="veh001_203" depart="26541" from="1207401650" to="24465651#1" type="passenger"/>
  <trip id="veh001_204" depart="29395" from="-33683398#2" to="159942190" type="passenger"/>
  <trip id="veh001_205" depart="31301" from="-768805831#1" to="177743535#0" type="passenger"/>
  <trip id="veh001_206" depart="30546" from="1363506394#4" to="1207401650" type="passenger"/>
  <trip id="veh001_207" depart="27860" from="175760666" to="610738424#0" type="passenger"/>
  <trip id="veh001_208" depart="29035" from="44472940#0" to="12088974#3" type="passenger"/>
  <trip id="veh001_209" depart="31664" from="998773447#1" to="240034070#0" type="passenger"/>
  <trip id="veh001_210" depart="25259" from="50323222#1" to="50843196#0" type="passenger"/>
  <trip id="veh001_211" depart="29783" from="1192417710" to="968332515#0" type="passenger"/>
  <trip id="veh001_212" depart="27412" from="-33683398#2" to="159942190" type="passenger"/>
  <trip id="veh001_213" depart="27058" from="240640942#1" to="177743535#0" type="passenger"/>
  <trip id="veh001_214" depart="31185" from="-1092108194" to="177743535#0" type="passenger"/>
  <trip id="veh001_215" depart="28154" from="998773447#1" to="1091984826#0" type="passenger"/>
  <trip id="veh001_216" depart="30182" from="159942190" to="998773447#1" type="passenger"/>
  <trip id="veh001_217" depart="27537" from="-70662727#0" to="610738424#0" type="passenger"/>
  <trip id="veh001_218" depart="26269" from="-769600704" to="227960847#0" type="passenger"/>
  <trip id="veh001_219" depart="28822" from="1064853456" to="-33683398#2" type="passenger"/>
  <trip id="veh001_220" depart="29833" from="47386145" to="40784659#1" type="passenger"/>
  <trip id="veh001_221" depart="28773" from="1363506394#4" to="173471112" type="passenger"/>
  <trip id="veh001_222" depart="26100" from="175637233#0" to="47386111#1" type="passenger"/>
  <trip id="veh001_223" depart="28283" from="-10738871#0" to="47386145" type="passenger"/>
  <trip id="veh001_224" depart="29297" from="1192417710" to="68868377" type="passenger"/>
  <trip id="veh001_225" depart="30277" from="1092600147#1" to="1363506394#4" type="passenger"/>
  <trip id="veh001_226" depart="26641" from="1119184638#0" to="1085107695" type="passenger"/>
  <trip id="veh001_227" depart="25929" from="-1092108194" to="240666074#4" type="passenger"/>
  <trip id="veh001_228" depart="27733" from="24446738#3" to="44472940#0" type="passenger"/>
  <trip id="veh001_229" depart="27736" from="1064799814" to="-769600704" type="passenger"/>
  <trip id="veh001_230" depart="25469" from="47386145" to="1207401650" type="passenger"/>
  <trip id="veh001_231" depart="25210" from="220775319" to="40784659#0" type="passenger"/>
  <trip id="veh001_232" depart="30861" from="-47279971" to="-49073765#0" type="passenger"/>
  <trip id="veh001_233" depart="25333" from="446640439" to="1064799814" type="passenger"/>
  <trip id="veh001_234" depart="28581" from="968332515#0" to="900390006#1" type="passenger"/>
  <trip id="veh001_235" depart="25448" from="-769600704" to="1092600147#1" type="passenger"/>
  <trip id="veh001_236" depart="31876" from="240640942#1" to="1085107695" type="passenger"/>
  <trip id="veh001_237" depart="26802" from="-72083131" to="24465651#1" type="passenger"/>
  <trip id="veh001_238" depart="25548" from="47386145" to="40784659#1" type="passenger"/>
  <trip id="veh001_239" depart="25376" from="900390006#1" to="47386145" type="passenger"/>
  <trip id="veh001_240" depart="30203" from="-1092108194" to="610738424#0" type="passenger"/>
  <trip id="veh001_241" depart="28272" from="-226907342#1" to="68868377" type="passenger"/>
  <trip id="veh001_242" depart="25472" from="159942190" to="-72083131" type="passenger"/>
  <trip id="veh001_243" depart="27357" from="10632130" to="-769600704" type="passenger"/>
  <trip id="veh001_244" depart="26055" from="40299122#2" to="50323222#1" type="passenger"/>
  <trip id="veh001_245" depart="26802" from="50843198#3" to="9704194#4" type="passenger"/>
  <trip id="veh001_246" depart="28720" from="177743535#0" to="44472940#1" type="passenger"/>
  <trip id="veh001_247" depart="31308" from="40784659#1" to="-232359138" type="passenger"/>
  <trip id="veh001_248" depart="29835" from="-768805831#1" to="968332515#0" type="passenger"/>
  <trip id="veh001_249" depart="28390" from="159942190" to="1020246871" type="passenger"/>
  <trip id="veh001_250" depart="25831" from="-226907342#1" to="173471112" type="passenger"/>
  <trip id="veh001_251" depart="31448" from="40784659#0" to="240034070#0" type="passenger"/>
  <trip id="veh001_252" depart="28945" from="-33683398#2" to="-232359138" type="passenger"/>
  <trip id="veh001_253" depart="28225" from="159942190" to="237271809#2" type="passenger"/>
  <trip id="veh001_254" depart="31031" from="145007016" to="240640942#1" type="passenger"/>
  <trip id="veh001_255" depart="25696" from="1068434254#0" to="240640942#1" type="passenger"/>
  <trip id="veh001_256" depart="28144" from="50843196#0" to="-70662727#0" type="passenger"/>
  <trip id="veh001_257" depart="30529" from="39659484" to="40784659#1" type="passenger"/>
  <trip id="veh001_258" depart="30524" from="240640942#1" to="50323222#1" type="passenger"/>
  <trip id="veh001_259" depart="25582" from="1092600147#1" to="237271809#2" type="passenger"/>
  <trip id="veh001_260" depart="25288" from="175760666" to="43763701#3" type="passenger"/>
  <trip id="veh001_261" depart="26930" from="610738424#0" to="446640439" type="passenger"/>
  <trip id="veh001_262" depart="29978" from="-40784652#0" to="-70662723#0" type="passenger"/>
  <trip id="veh001_263" depart="29304" from="1363506394#4" to="47283778#2" type="passenger"/>
  <trip id="veh001_264" depart="29364" from="431876176" to="47386145" type="passenger"/>
  <trip id="veh001_265" depart="30179" from="-70662727#0" to="760475718" type="passenger"/>
  <trip id="veh001_266" depart="27639" from="24465651#1" to="177743535#0" type="passenger"/>
  <trip id="veh001_267" depart="28083" from="40784659#0" to="900386124#0" type="passenger"/>
  <trip id="veh001_268" depart="26150" from="137220971" to="237271809#2" type="passenger"/>
  <trip id="veh001_269" depart="25285" from="593755854" to="159942190" type="passenger"/>
  <trip id="veh001_270" depart="27320" from="-238219473" to="-863774952#0" type="passenger"/>
  <trip id="veh001_271" depart="31358" from="47386145" to="-33683398#2" type="passenger"/>
  <trip id="veh001_272" depart="28569" from="-40784652#0" to="40299122#2" type="passenger"/>
  <trip id="veh001_273" depart="32073" from="610738423#1" to="47386145" type="passenger"/>
  <trip id="veh001_274" depart="29973" from="1119184635#1" to="159942190" type="passenger"/>
  <trip id="veh001_275" depart="30032" from="159942190" to="446640439" type="passenger"/>
  <trip id="veh001_276" depart="27668" from="50325553" to="175637233#0" type="passenger"/>
  <trip id="veh001_277" depart="30344" from="47386145" to="177743535#0" type="passenger"/>
  <trip id="veh001_278" depart="29361" from="441994803" to="1085107695" type="passenger"/>
  <trip id="veh001_279" depart="32399" from="-10632130" to="220775319" type="passenger"/>
  <trip id="veh001_280" depart="25797" from="50843200#1" to="-232359138" type="passenger"/>
  <trip id="veh001_281" depart="29179" from="159942190" to="177743535#0" type="passenger"/>
  <trip id="veh001_282" depart="29499" from="220775319" to="1363506394#4" type="passenger"/>
  <trip id="veh001_283" depart="30792" from="-10738871#0" to="-33683398#2" type="passenger"/>
  <trip id="veh001_284" depart="25991" from="40784659#1" to="50843196#0" type="passenger"/>
  <trip id="veh001_285" depart="29511" from="240640942#1" to="1064853456" type="passenger"/>
  <trip id="veh001_286" depart="32069" from="50843200#1" to="-1273359359#1" type="passenger"/>
  <trip id="veh001_287" depart="29447" from="900390006#1" to="-226907342#1" type="passenger"/>
  <trip id="veh001_288" depart="30327" from="1092600147#1" to="-769600704" type="passenger"/>
  <trip id="veh001_289" depart="25301" from="40784659#1" to="240034070#0" type="passenger"/>
  <trip id="veh001_290" depart="29864" from="10632130" to="998773447#1" type="passenger"/>
  <trip id="veh001_291" depart="25630" from="44472940#1" to="40784659#1" type="passenger"/>
  <trip id="veh001_292" depart="29402" from="610738424#0" to="240007894#1" type="passenger"/>
  <trip id="veh001_293" depart="26411" from="50843198#3" to="12088974#3" type="passenger"/>
  <trip id="veh001_294" depart="31733" from="175760666" to="446640439" type="passenger"/>
  <trip id="veh001_295" depart="30018" from="240640942#1" to="1363506394#4" type="passenger"/>
  <trip id="veh001_296" depart="32254" from="50843200#1" to="50843196#0" type="passenger"/>
  <trip id="veh001_297" depart="31669" from="1326094907#0" to="-1092108194" type="passenger"/>
  <trip id="veh001_298" depart="29682" from="40784659#0" to="173471112" type="passenger"/>
  <trip id="veh001_299" depart="30493" from="40140141#0" to="50325553" type="passenger"/>
  <trip id="veh001_300" depart="27861" from="159538498#1" to="47386145" type="passenger"/>
  <trip id="veh001_301" depart="27227" from="1085107695" to="9704194#4" type="passenger"/>
  <trip id="veh001_302" depart="32033" from="47283778#2" to="998773447#1" type="passenger"/>
  <trip id="veh001_303" depart="31816" from="998773447#1" to="1363506394#4" type="passenger"/>
  <trip id="veh001_304" depart="28287" from="968332515#0" to="-1092108194" type="passenger"/>
  <trip id="veh001_305" depart="27461" from="1326094907#0" to="40784659#1" type="passenger"/>
  <trip id="veh001_306" depart="28466" from="43763701#3" to="-232359138" type="passenger"/>
  <trip id="veh001_307" depart="30932" from="900390006#1" to="50323222#1" type="passenger"/>
  <trip id="veh001_308" depart="25993" from="68868377" to="900390006#1" type="passenger"/>
  <trip id="veh001_309" depart="28092" from="240034070#0" to="40784659#0" type="passenger"/>
  <trip id="veh001_310" depart="28022" from="50843196#0" to="1207401650" type="passenger"/>
  <trip id="veh001_311" depart="30001" from="10632130" to="1207401650" type="passenger"/>
  <trip id="veh001_312" depart="28882" from="40784659#1" to="47386111#1" type="passenger"/>
  <trip id="veh001_313" depart="32186" from="1064853456" to="610738424#0" type="passenger"/>
  <trip id="veh001_314" depart="26484" from="610738424#0" to="1020246871" type="passenger"/>
  <trip id="veh001_315" depart="30565" from="47386145" to="47386111#1" type="passenger"/>
  <trip id="veh001_316" depart="27879" from="240007894#1" to="998773447#1" type="passenger"/>
  <trip id="veh001_317" depart="29978" from="220775319" to="1324706272" type="passenger"/>
  <trip id="veh001_318" depart="26263" from="136232037#0" to="47267014#1" type="passenger"/>
  <trip id="veh001_319" depart="28701" from="175760666" to="177743535#0" type="passenger"/>
  <trip id="veh001_320" depart="25325" from="610738424#0" to="40784659#0" type="passenger"/>
  <trip id="veh001_321" depart="25217" from="-70662727#0" to="1192417710" type="passenger"/>
  <trip id="veh001_322" depart="25702" from="40784659#1" to="-72083131" type="passenger"/>
  <trip id="veh001_323" depart="26542" from="-768805831#1" to="47386111#1" type="passenger"/>
  <trip id="veh001_324" depart="26771" from="1207401650" to="24623782#1" type="passenger"/>