<trips>
  <trip id="veh001_0" depart="26379" from="-50843173#3" to="169004589#0" type="passenger"/>
  <trip id="veh001_1" depart="30921" from="238492234#0" to="71293415#1" type="passenger"/>
  <trip id="veh001_2" depart="29281" from="237271809#4" to="-451728952#4" type="passenger"/>
  <trip id="veh001_3" depart="29923" from="-50323232#2" to="47386145" type="passenger"/>
  <trip id="veh001_4" depart="29680" from="71293415#1" to="40784659#1" type="passenger"/>
  <trip id="veh001_5" depart="28427" from="49219226" to="238492234#0" type="passenger"/>
  <trip id="veh001_6" depart="31919" from="-504456842" to="40784659#1" type="passenger"/>
  <trip id="veh001_7" depart="26515" from="163764181#0" to="504456844" type="passenger"/>
  <trip id="veh001_8" depart="30092" from="47386145" to="1262057043#2" type="passenger"/>
  <trip id="veh001_9" depart="26689" from="-1080217656#1" to="1064816194" type="passenger"/>
  <trip id="veh001_10" depart="25701" from="1387458837" to="39658122#0" type="passenger"/>
  <trip id="veh001_11" depart="26557" from="1092108127" to="-1225879469" type="passenger"/>
  <trip id="veh001_12" depart="29478" from="85796876#1" to="49219226" type="passenger"/>
  <trip id="veh001_13" depart="31864" from="39697113#3" to="-176637359#2" type="passenger"/>
  <trip id="veh001_14" depart="30764" from="47386124" to="238492234#0" type="passenger"/>
  <trip id="veh001_15" depart="28947" from="-1225879469" to="-1068139751" type="passenger"/>
  <trip id="veh001_16" depart="27913" from="237271809#4" to="74450559" type="passenger"/>
  <trip id="veh001_17" depart="28794" from="958852841" to="10738871#0" type="passenger"/>
  <trip id="veh001_18" depart="31596" from="-504456842" to="40784659#1" type="passenger"/>
  <trip id="veh001_19" depart="27396" from="958852841" to="136014464#0" type="passenger"/>
  <trip id="veh001_20" depart="30151" from="71293415#1" to="1092108127" type="passenger"/>
  <trip id="veh001_21" depart="30628" from="-1225879469" to="-176637359#2" type="passenger"/>
  <trip id="veh001_22" depart="31582" from="163764181#0" to="47386145" type="passenger"/>
  <trip id="veh001_23" depart="28755" from="40040179#12" to="958852841" type="passenger"/>
  <trip id="veh001_24" depart="30130" from="39658122#0" to="-238492234#0" type="passenger"/>
  <trip id="veh001_25" depart="30483" from="1262057043#2" to="958852841" type="passenger"/>
  <trip id="veh001_26" depart="26462" from="1092372218" to="10738871#0" type="passenger"/>
  <trip id="veh001_27" depart="30853" from="1235145933" to="-220770272" type="passenger"/>
  <trip id="veh001_28" depart="25511" from="446640439" to="1005394020#2" type="passenger"/>
  <trip id="veh001_29" depart="31683" from="504456844" to="163764181#0" type="passenger"/>
  <trip id="veh001_30" depart="31217" from="-1080217656#1" to="163764181#0" type="passenger"/>
  <trip id="veh001_31" depart="31931" from="39674883#1" to="1262057043#2" type="passenger"/>
  <trip id="veh001_32" depart="31075" from="49219226" to="958852841" type="passenger"/>
  <trip id="veh001_33" depart="31378" from="446640439" to="769245718" type="passenger"/>
  <trip id="veh001_34" depart="32222" from="169004589#0" to="-1068139751" type="passenger"/>
  <trip id="veh001_35" depart="25473" from="238492234#0" to="1092372218" type="passenger"/>
  <trip id="veh001_36" depart="30707" from="163764181#0" to="-50371367#1" type="passenger"/>
  <trip id="veh001_37" depart="29915" from="679060031" to="169004589#0" type="passenger"/>
  <trip id="veh001_38" depart="28548" from="679060031" to="593755854" type="passenger"/>
  <trip id="veh001_39" depart="28042" from="238492234#0" to="958852841" type="passenger"/>
  <trip id="veh001_40" depart="31616" from="-1387302975" to="446640439" type="passenger"/>
  <trip id="veh001_41" depart="25618" from="143996571#1" to="169004589#0" type="passenger"/>
  <trip id="veh001_42" depart="27018" from="1064476622#0" to="238492234#0" type="passenger"/>
  <trip id="veh001_43" depart="28343" from="958852841" to="1262057043#2" type="passenger"/>
  <trip id="veh001_44" depart="25697" from="143996571#1" to="-50383097#9" type="passenger"/>
  <trip id="veh001_45" depart="25422" from="-451728952#4" to="-1225879469" type="passenger"/>
  <trip id="veh001_46" depart="32137" from="50843248" to="40784659#1" type="passenger"/>
  <trip id="veh001_47" depart="32253" from="47386145" to="238492234#0" type="passenger"/>
  <trip id="veh001_48" depart="28030" from="47386145" to="163764181#0" type="passenger"/>
  <trip id="veh001_49" depart="31460" from="-226855595#1" to="-52205556" type="passenger"/>
  <trip id="veh001_50" depart="26088" from="-50383097#9" to="240666074#0" type="passenger"/>
  <trip id="veh001_51" depart="30299" from="169004589#0" to="163764181#0" type="passenger"/>
  <trip id="veh001_52" depart="26064" from="1067953247#1" to="1387458837" type="passenger"/>
  <trip id="veh001_53" depart="27890" from="39674883#1" to="1387458837" type="passenger"/>
  <trip id="veh001_54" depart="29631" from="-220770272" to="446640439" type="passenger"/>
  <trip id="veh001_55" depart="26835" from="1235145933" to="169004589#0" type="passenger"/>
  <trip id="veh001_56" depart="29122" from="240666074#0" to="163764181#0" type="passenger"/>
  <trip id="veh001_57" depart="30504" from="169004589#0" to="1064816194" type="passenger"/>
  <trip id="veh001_58" depart="27982" from="237271809#4" to="1118804256#1" type="passenger"/>
  <trip id="veh001_59" depart="31176" from="-52205556" to="-1124366653" type="passenger"/>
  <trip id="veh001_60" depart="26431" from="-50371367#1" to="136752699" type="passenger"/>
  <trip id="veh001_61" depart="27649" from="424580470#5" to="10738871#0" type="passenger"/>
  <trip id="veh001_62" depart="27723" from="1262057048#0" to="-1080217656#1" type="passenger"/>
  <trip id="veh001_63" depart="29693" from="238492234#0" to="-39750994#4" type="passenger"/>
  <trip id="veh001_64" depart="28704" from="47386145" to="446640439" type="passenger"/>
  <trip id="veh001_65" depart="29911" from="40040179#12" to="47386145" type="passenger"/>
  <trip id="veh001_66" depart="30930" from="-1225879469" to="39697113#3" type="passenger"/>
  <trip id="veh001_67" depart="30167" from="39697113#3" to="143996571#1" type="passenger"/>
  <trip id="veh001_68" depart="31744" from="-39750994#4" to="-51296363" type="passenger"/>
  <trip id="veh001_69" depart="31507" from="39689392#0" to="169004589#0" type="passenger"/>
  <trip id="veh001_70" depart="26817" from="35422924#4" to="900390006#1" type="passenger"/>
  <trip id="veh001_71" depart="29431" from="-50323232#2" to="-39750994#4" type="passenger"/>
  <trip id="veh001_72" depart="28985" from="-1387302975" to="-504456842" type="passenger"/>
  <trip id="veh001_73" depart="28955" from="1067953247#1" to="-1225879469" type="passenger"/>
  <trip id="veh001_74" depart="26341" from="1005394020#2" to="1064816194" type="passenger"/>
  <trip id="veh001_75" depart="27926" from="163764181#0" to="958852841" type="passenger"/>
  <trip id="veh001_76" depart="30920" from="71293415#1" to="9178721#3" type="passenger"/>
  <trip id="veh001_77" depart="32049" from="-176637359#2" to="958852841" type="passenger"/>
  <trip id="veh001_78" depart="28993" from="237271809#4" to="240666074#0" type="passenger"/>
  <trip id="veh001_79" depart="28759" from="1092108127" to="-220770272" type="passenger"/>
  <trip id="veh001_80" depart="29518" from="240666074#0" to="593755854" type="passenger"/>
  <trip id="veh001_81" depart="27681" from="39697113#3" to="238492234#0" type="passenger"/>
  <trip id="veh001_82" depart="26949" from="49219226" to="237271809#4" type="passenger"/>
  <trip id="veh001_83" depart="30459" from="-52205556" to="169004589#0" type="passenger"/>
  <trip id="veh001_84" depart="26754" from="593755854" to="1262057048#0" type="passenger"/>
  <trip id="veh001_85" depart="29548" from="-226855595#1" to="47386145" type="passenger"/>
  <trip id="veh001_86" depart="26068" from="1092108127" to="769245718" type="passenger"/>
  <trip id="veh001_87" depart="26295" from="-1068139751" to="47386145" type="passenger"/>
  <trip id="veh001_88" depart="29304" from="163764181#0" to="1005394019#0" type="passenger"/>
  <trip id="veh001_89" depart="26462" from="49171011#1" to="769245718" type="passenger"/>
  <trip id="veh001_90" depart="25620" from="1235145933" to="47386145" type="passenger"/>
  <trip id="veh001_91" depart="28961" from="1387458837" to="1005394020#2" type="passenger"/>
  <trip id="veh001_92" depart="26072" from="1235145933" to="446640439" type="passenger"/>
  <trip id="veh001_93" depart="29144" from="39674883#1" to="1262057048#0" type="passenger"/>
  <trip id="veh001_94" depart="30663" from="143996571#1" to="424580470#5" type="passenger"/>
  <trip id="veh001_95" depart="25918" from="1262057048#0" to="1005394020#2" type="passenger"/>
  <trip id="veh001_96" depart="29127" from="169004589#0" to="446640439" type="passenger"/>
  <trip id="veh001_97" depart="25257" from="504456844" to="1092108127" type="passenger"/>
  <trip id="veh001_98" depart="25551" from="49228821#1" to="958852841" type="passenger"/>
  <trip id="veh001_99" depart="27833" from="163764181#0" to="446640439" type="passenger"/>
  <trip id="veh001_100" depart="26879" from="1092108127" to="39697113#3" type="passenger"/>
  <trip id="veh001_101" depart="29007" from="958852841" to="163764181#0" type="passenger"/>
  <trip id="veh001_102" depart="25882" from="-1387302975" to="39697113#3" type="passenger"/>
  <trip id="veh001_103" depart="26847" from="30620777" to="163764181#0" type="passenger"/>
  <trip id="veh001_104" depart="31545" from="39697113#3" to="240666074#0" type="passenger"/>
  <trip id="veh001_105" depart="26014" from="-50383097#9" to="35422924#4" type="passenger"/>
  <trip id="veh001_106" depart="32356" from="-220770272" to="50843170" type="passenger"/>
  <trip id="veh001_107" depart="31741" from="47386145" to="40784659#1" type="passenger"/>
  <trip id="veh001_108" depart="27479" from="1272337500" to="-1124366653" type="passenger"/>
  <trip id="veh001_109" depart="26578" from="9704194#7" to="1092108127" type="passenger"/>
  <trip id="veh001_110" depart="31751" from="39697113#3" to="958852841" type="passenger"/>
  <trip id="veh001_111" depart="30981" from="1235145933" to="238492234#0" type="passenger"/>
  <trip id="veh001_112" depart="28964" from="40784659#1" to="10738871#0" type="passenger"/>
  <trip id="veh001_113" depart="28824" from="71293415#1" to="-39750994#4" type="passenger"/>
  <trip id="veh001_114" depart="29172" from="1005394020#2" to="-1068139751" type="passenger"/>
  <trip id="veh001_115" depart="31910" from="143996571#1" to="232359137" type="passenger"/>
  <trip id="veh001_116" depart="29939" from="504456844" to="-39658122#4" type="passenger"/>
  <trip id="veh001_117" depart="25818" from="1092108127" to="136014464#0" type="passenger"/>
  <trip id="veh001_118" depart="26207" from="1005394020#2" to="12088962#10" type="passenger"/>
  <trip id="veh001_119" depart="30863" from="39674883#1" to="143996571#1" type="passenger"/>
  <trip id="veh001_120" depart="28431" from="1272337500" to="47281535" type="passenger"/>
  <trip id="veh001_121" depart="25290" from="900390006#1" to="49171011#1" type="passenger"/>
  <trip id="veh001_122" depart="28406" from="240666074#0" to="71293415#1" type="passenger"/>
  <trip id="veh001_123" depart="29484" from="1092372218" to="39674883#1" type="passenger"/>
  <trip id="veh001_124" depart="32321" from="-126724514#0" to="1272337500" type="passenger"/>
  <trip id="veh001_125" depart="26858" from="1005394019#0" to="169004589#0" type="passenger"/>
  <trip id="veh001_126" depart="29749" from="-39750994#4" to="163764181#0" type="passenger"/>
  <trip id="veh001_127" depart="25383" from="238492234#0" to="457547879#4" type="passenger"/>
  <trip id="veh001_128" depart="27827" from="958852841" to="49219226" type="passenger"/>
  <trip id="veh001_129" depart="29648" from="71293415#1" to="10738871#0" type="passenger"/>
  <trip id="veh001_130" depart="25924" from="50843248" to="1262057048#0" type="passenger"/>
  <trip id="veh001_131" depart="25363" from="-39658122#4" to="39674883#1" type="passenger"/>
  <trip id="veh001_132" depart="29612" from="39838789#2" to="240666074#0" type="passenger"/>
  <trip id="veh001_133" depart="27714" from="-220770272" to="958852841" type="passenger"/>
  <trip id="veh001_134" depart="28457" from="-39658122#4" to="238492234#0" type="passenger"/>
  <trip id="veh001_135" depart="27760" from="-220770272" to="1064816194" type="passenger"/>
  <trip id="veh001_136" depart="31261" from="49228821#1" to="39658122#0" type="passenger"/>
  <trip id="veh001_137" depart="27908" from="30620777" to="163764181#0" type="passenger"/>
  <trip id="veh001_138" depart="26098" from="958852841" to="1005394020#2" type="passenger"/>
  <trip id="veh001_139" depart="26095" from="47386145" to="1092108127" type="passenger"/>
  <trip id="veh001_140" depart="26621" from="1005394020#2" to="1005394019#0" type="passenger"/>
  <trip id="veh001_141" depart="27383" from="-1124366653" to="-126724514#0" type="passenger"/>
  <trip id="veh001_142" depart="26035" from="769245718" to="39697113#3" type="passenger"/>
  <trip id="veh001_143" depart="26087" from="136752699" to="958852841" type="passenger"/>
  <trip id="veh001_144" depart="29387" from="237271809#4" to="39697113#3" type="passenger"/>
  <trip id="veh001_145" depart="29146" from="169004589#0" to="-39750994#4" type="passenger"/>
  <trip id="veh001_146" depart="30615" from="-39750994#4" to="1262057043#2" type="passenger"/>
  <trip id="veh001_147" depart="28498" from="237271809#4" to="-141172463#0" type="passenger"/>
  <trip id="veh001_148" depart="30371" from="40784659#1" to="-50843173#3" type="passenger"/>
  <trip id="veh001_149" depart="26758" from="49171011#1" to="-504456842" type="passenger"/>
  <trip id="veh001_150" depart="30530" from="-39750994#4" to="40784659#1" type="passenger"/>
  <trip id="veh001_151" depart="29399" from="958852841" to="47386145" type="passenger"/>
  <trip id="veh001_152" depart="25262" from="1005394020#2" to="1067953247#1" type="passenger"/>
  <trip id="veh001_153" depart="29756" from="1064816194" to="39697113#3" type="passenger"/>
  <trip id="veh001_154" depart="31009" from="-220770272" to="39697113#3" type="passenger"/>
  <trip id="veh001_155" depart="32357" from="39674883#1" to="-176637359#2" type="passenger"/>
  <trip id="veh001_156" depart="32336" from="-504456842" to="-220770272" type="passenger"/>
  <trip id="veh001_157" depart="28906" from="-52205556" to="-176637359#2" type="passenger"/>
  <trip id="veh001_158" depart="26410" from="238492234#0" to="958852841" type="passenger"/>
  <trip id="veh001_159" depart="31746" from="1272337500" to="-39658122#4" type="passenger"/>
  <trip id="veh001_160" depart="29896" from="163764181#0" to="-226855595#1" type="passenger"/>
  <trip id="veh001_161" depart="25577" from="1005394020#2" to="47386145" type="passenger"/>
  <trip id="veh001_162" depart="27652" from="238492234#0" to="163764181#0" type="passenger"/>
  <trip id="veh001_163" depart="26308" from="446640439" to="169004589#0" type="passenger"/>
  <trip id="veh001_164" depart="31373" from="446640439" to="39697113#3" type="passenger"/>
  <trip id="veh001_165" depart="28866" from="-176637359#2" to="71293415#1" type="passenger"/>
  <trip id="veh001_166" depart="30686" from="169004589#0" to="143996571#1" type="passenger"/>
  <trip id="veh001_167" depart="31399" from="238492234#0" to="593755854" type="passenger"/>
  <trip id="veh001_168" depart="28604" from="163764181#0" to="-52205556" type="passenger"/>
  <trip id="veh001_169" depart="28434" from="424580470#5" to="1064816194" type="passenger"/>
  <trip id="veh001_170" depart="30068" from="504456844" to="-176637359#2" type="passenger"/>
  <trip id="veh001_171" depart="30033" from="169004589#0" to="-176637359#2" type="passenger"/>
  <trip id="veh001_172" depart="29838" from="238492234#0" to="-176637359#2" type="passenger"/>
  <trip id="veh001_173" depart="32061" from="136752699" to="958852841" type="passenger"/>
  <trip id="veh001_174" depart="26429" from="238492234#0" to="47386124" type="passenger"/>
  <trip id="veh001_175" depart="30508" from="143996571#1" to="74450559" type="passenger"/>
  <trip id="veh001_176" depart="31980" from="958852841" to="40040179#12" type="passenger"/>
  <trip id="veh001_177" depart="25307" from="238492234#0" to="169004589#0" type="passenger"/>
  <trip id="veh001_178" depart="29493" from="-141172463#0" to="238492234#0" type="passenger"/>
  <trip id="veh001_179" depart="29712" from="504456844" to="-15676150#0" type="passenger"/>
  <trip id="veh001_180" depart="27890" from="593755854" to="1387458837" type="passenger"/>
  <trip id="veh001_181" depart="27085" from="900390006#1" to="240666074#0" type="passenger"/>
  <trip id="veh001_182" depart="27808" from="47386145" to="1092372218" type="passenger"/>
  <trip id="veh001_183" depart="30904" from="238492234#0" to="136014464#0" type="passenger"/>
  <trip id="veh001_184" depart="25448" from="958852841" to="1387458837" type="passenger"/>
  <trip id="veh001_185" depart="27517" from="85796876#1" to="958852841" type="passenger"/>
  <trip id="veh001_186" depart="25516" from="39674883#1" to="47386124" type="passenger"/>
  <trip id="veh001_187" depart="32195" from="-39750994#4" to="958852841" type="passenger"/>
  <trip id="veh001_188" depart="32042" from="-1387302975" to="438516309#1" type="passenger"/>
  <trip id="veh001_189" depart="25675" from="163764181#0" to="169004589#0" type="passenger"/>
  <trip id="veh001_190" depart="29867" from="238492234#0" to="-39750994#4" type="passenger"/>
  <trip id="veh001_191" depart="29504" from="39838789#2" to="958852841" type="passenger"/>
  <trip id="veh001_192" depart="31818" from="240666074#0" to="237271809#4" type="passenger"/>
  <trip id="veh001_193" depart="27062" from="-39658122#4" to="163764181#0" type="passenger"/>
  <trip id="veh001_194" depart="31310" from="958852841" to="74450559" type="passenger"/>
  <trip id="veh001_195" depart="29732" from="1118804256#1" to="47225638#0" type="passenger"/>
  <trip id="veh001_196" depart="28090" from="169004589#0" to="136014464#0" type="passenger"/>
  <trip id="veh001_197" depart="25957" from="-40035904#1" to="238492234#0" type="passenger"/>
  <trip id="veh001_198" depart="31816" from="1005394019#0" to="-220770272" type="passenger"/>
  <trip id="veh001_199" depart="29043" from="238492234#0" to="-50323232#2" type="passenger"/>
  <trip id="veh001_200" depart="32090" from="1235145933" to="1092372218" type="passenger"/>
  <trip id="veh001_201" depart="26901" from="-40035992#5" to="35422924#4" type="passenger"/>
  <trip id="veh001_202" depart="28720" from="163764181#0" to="85796876#1" type="passenger"/>
  <trip id="veh001_203" depart="26541" from="-451728952#4" to="-1080217656#1" type="passenger"/>
  <trip id="veh001_204" depart="25916" from="-39750994#4" to="47386145" type="passenger"/>
  <trip id="veh001_205" depart="26545" from="74450559" to="238492234#0" type="passenger"/>
  <trip id="veh001_206" depart="25336" from="50843248" to="240666074#0" type="passenger"/>
  <trip id="veh001_207" depart="26597" from="446640439" to="679060031" type="passenger"/>
  <trip id="veh001_208" depart="29674" from="-863774952#1" to="-504456842" type="passenger"/>
  <trip id="veh001_209" depart="30480" from="-1387302975" to="-451728952#4" type="passenger"/>
  <trip id="veh001_210" depart="31015" from="-1068139751" to="1067953247#1" type="passenger"/>
  <trip id="veh001_211" depart="30416" from="10738871#0" to="1235145933" type="passenger"/>
  <trip id="veh001_212" depart="31778" from="-39750994#4" to="1064816194" type="passenger"/>
  <trip id="veh001_213" depart="32358" from="74450559" to="900390006#1" type="passenger"/>
  <trip id="veh001_214" depart="32310" from="74450559" to="-39750994#4" type="passenger"/>
  <trip id="veh001_215" depart="29547" from="39697113#3" to="958852841" type="passenger"/>
  <trip id="veh001_216" depart="27967" from="40784659#1" to="-141172463#0" type="passenger"/>
  <trip id="veh001_217" depart="28142" from="-176637359#2" to="424580470#5" type="passenger"/>
  <trip id="veh001_218" depart="31456" from="39697113#3" to="71293415#1" type="passenger"/>
  <trip id="veh001_219" depart="30135" from="12088962#10" to="1005394020#2" type="passenger"/>
  <trip id="veh001_220" depart="26507" from="-1068139751" to="-176637359#2" type="passenger"/>
  <trip id="veh001_221" depart="25214" from="169004589#0" to="446640439" type="passenger"/>
  <trip id="veh001_222" depart="26100" from="50843248" to="-220770272" type="passenger"/>
  <trip id="veh001_223" depart="28283" from="169004589#0" to="47386145" type="passenger"/>
  <trip id="veh001_224" depart="29297" from="49219226" to="-50383097#9" type="passenger"/>
  <trip id="veh001_225" depart="30277" from="238492234#0" to="504456844" type="passenger"/>
  <trip id="veh001_226" depart="26641" from="1005394020#2" to="30620777" type="passenger"/>
  <trip id="veh001_227" depart="25929" from="240666074#0" to="769245718" type="passenger"/>
  <trip id="veh001_228" depart="27733" from="238492234#0" to="-504456842" type="passenger"/>
  <trip id="veh001_229" depart="27736" from="-226855595#1" to="238492234#0" type="passenger"/>
  <trip id="veh001_230" depart="25469" from="47386145" to="-451728952#4" type="passenger"/>
  <trip id="veh001_231" depart="25210" from="958852841" to="143996571#1" type="passenger"/>
  <trip id="veh001_232" depart="30861" from="47281535" to="169004589#0" type="passenger"/>
  <trip id="veh001_233" depart="25333" from="47386124" to="-226855595#1" type="passenger"/>
  <trip id="veh001_234" depart="28581" from="10738871#0" to="-226854874" type="passenger"/>
  <trip id="veh001_235" depart="25448" from="238492234#0" to="136752699" type="passenger"/>
  <trip id="veh001_236" depart="31876" from="163764181#0" to="30620777" type="passenger"/>
  <trip id="veh001_237" depart="26802" from="-50323232#2" to="-1080217656#1" type="passenger"/>
  <trip id="veh001_238" depart="25548" from="232359137" to="143996571#1" type="passenger"/>
  <trip id="veh001_239" depart="25376" from="-226854874" to="47386145" type="passenger"/>
  <trip id="veh001_240" depart="30203" from="240666074#0" to="958852841" type="passenger"/>
  <trip id="veh001_241" depart="28272" from="30620777" to="-50383097#9" type="passenger"/>
  <trip id="veh001_242" depart="25472" from="40040179#12" to="-50323232#2" type="passenger"/>
  <trip id="veh001_243" depart="27357" from="136014464#0" to="238492234#0" type="passenger"/>
  <trip id="veh001_244" depart="26055" from="39838789#2" to="-51296363" type="passenger"/>
  <trip id="veh001_245" depart="26802" from="-1225879469" to="1067953247#1" type="passenger"/>
  <trip id="veh001_246" depart="28720" from="238492234#0" to="-15676150#0" type="passenger"/>
  <trip id="veh001_247" depart="31308" from="-1068139751" to="593755854" type="passenger"/>
  <trip id="veh001_248" depart="29835" from="1262057043#2" to="10738871#0" type="passenger"/>
  <trip id="veh001_249" depart="28390" from="-39750994#4" to="457547879#4" type="passenger"/>
  <trip id="veh001_250" depart="25831" from="30620777" to="50843248" type="passenger"/>
  <trip id="veh001_251" depart="31448" from="47281535" to="163764181#0" type="passenger"/>
  <trip id="veh001_252" depart="28945" from="-39750994#4" to="593755854" type="passenger"/>
  <trip id="veh001_253" depart="31640" from="-39750994#4" to="40040179#12" type="passenger"/>
  <trip id="veh001_254" depart="26357" from="238492234#0" to="35422924#4" type="passenger"/>
  <trip id="veh001_255" depart="26201" from="-39750994#4" to="900390006#1" type="passenger"/>
  <trip id="veh001_256" depart="28311" from="1387458837" to="39658122#0" type="passenger"/>
  <trip id="veh001_257" depart="32034" from="1262057043#2" to="900390006#1" type="passenger"/>
  <trip id="veh001_258" depart="30382" from="1262057048#0" to="-52205556" type="passenger"/>
  <trip id="veh001_259" depart="31569" from="1064816194" to="136752699" type="passenger"/>
  <trip id="veh001_260" depart="29049" from="12088962#10" to="39674883#1" type="passenger"/>
  <trip id="veh001_261" depart="29983" from="163764181#0" to="958852841" type="passenger"/>
  <trip id="veh001_262" depart="28908" from="10738871#0" to="30620777" type="passenger"/>
  <trip id="veh001_263" depart="29310" from="958852841" to="47386124" type="passenger"/>
  <trip id="veh001_264" depart="31014" from="40784659#1" to="47386145" type="passenger"/>
  <trip id="veh001_265" depart="27677" from="47386145" to="1262057048#0" type="passenger"/>
  <trip id="veh001_266" depart="31342" from="-50323232#2" to="-1225879469" type="passenger"/>
  <trip id="veh001_267" depart="27026" from="85796876#1" to="-52205556" type="passenger"/>
  <trip id="veh001_268" depart="31678" from="49219226" to="958852841" type="passenger"/>
  <trip id="veh001_269" depart="31099" from="1005394019#0" to="-50323232#2" type="passenger"/>
  <trip id="veh001_270" depart="29227" from="1005394020#2" to="169004589#0" type="passenger"/>
  <trip id="veh001_271" depart="31309" from="1005394020#2" to="47386145" type="passenger"/>
  <trip id="veh001_272" depart="28733" from="958852841" to="40784659#1" type="passenger"/>
  <trip id="veh001_273" depart="29379" from="39697113#3" to="85796876#1" type="passenger"/>
  <trip id="veh001_274" depart="31113" from="47386145" to="1272337500" type="passenger"/>
  <trip id="veh001_275" depart="29918" from="39674883#1" to="40040179#12" type="passenger"/>
  <trip id="veh001_276" depart="26014" from="47281535" to="593755854" type="passenger"/>
  <trip id="veh001_277" depart="28029" from="41862226#1" to="-220770272" type="passenger"/>
  <trip id="veh001_278" depart="25848" from="39697113#3" to="30620777" type="passenger"/>
  <trip id="veh001_279" depart="27798" from="47386145" to="49171011#1" type="passenger"/>
  <trip id="veh001_280" depart="31835" from="39689392#0" to="169004589#0" type="passenger"/>
  <trip id="veh001_281" depart="26481" from="50843170" to="-39658122#4" type="passenger"/>
  <trip id="veh001_282" depart="31609" from="1118804256#1" to="-50383097#9" type="passenger"/>
  <trip id="veh001_283" depart="31451" from="-238492234#0" to="169004589#0" type="passenger"/>
  <trip id="veh001_284" depart="32068" from="1262057048#0" to="143996571#1" type="passenger"/>
  <trip id="veh001_285" depart="26366" from="50843248" to="39674883#1" type="passenger"/>
  <trip id="veh001_286" depart="25879" from="169004589#0" to="1235145933" type="passenger"/>
  <trip id="veh001_287" depart="32069" from="-39750994#4" to="238492234#0" type="passenger"/>
  <trip id="veh001_288" depart="29447" from="-226854874" to="-50371367#1" type="passenger"/>
  <trip id="veh001_289" depart="30897" from="238492234#0" to="39697113#3" type="passenger"/>
  <trip id="veh001_290" depart="29965" from="163764181#0" to="39674883#1" type="passenger"/>
  <trip id="veh001_291" depart="31977" from="446640439" to="1235145933" type="passenger"/>
  <trip id="veh001_292" depart="27436" from="85796876#1" to="958852841" type="passenger"/>
  <trip id="veh001_293" depart="28309" from="47386145" to="593755854" type="passenger"/>
  <trip id="veh001_294" depart="32379" from="504456844" to="39674883#1" type="passenger"/>
  <trip id="veh001_295" depart="26206" from="237271809#4" to="1005394020#2" type="passenger"/>
  <trip id="veh001_296" depart="28956" from="593755854" to="446640439" type="passenger"/>
  <trip id="veh001_297" depart="31744" from="40784659#1" to="39697113#3" type="passenger"/>
  <trip id="veh001_298" depart="25517" from="237271809#4" to="163764181#0" type="passenger"/>
  <trip id="veh001_299" depart="27559" from="446640439" to="504456844" type="passenger"/>
  <trip id="veh001_300" depart="29680" from="-51296363" to="-220770272" type="passenger"/>
  <trip id="veh001_301" depart="31789" from="958852841" to="1092372218" type="passenger"/>
  <trip id="veh001_302" depart="27390" from="240666074#0" to="40784659#1" type="passenger"/>
  <trip id="veh001_303" depart="26533" from="49219226" to="446640439" type="passenger"/>
  <trip id="veh001_304" depart="27142" from="39697113#3" to="10738871#0" type="passenger"/>
  <trip id="veh001_305" depart="32051" from="-141172463#0" to="163764181#0" type="passenger"/>
  <trip id="veh001_306" depart="30057" from="958852841" to="1068144844" type="passenger"/>
  <trip id="veh001_307" depart="30367" from="900390006#1" to="1064816194" type="passenger"/>
  <trip id="veh001_308" depart="25993" from="9704194#7" to="-226854874" type="passenger"/>
  <trip id="veh001_309" depart="28092" from="163764181#0" to="143996571#1" type="passenger"/>
  <trip id="veh001_310" depart="28022" from="39658122#0" to="-451728952#4" type="passenger"/>
  <trip id="veh001_311" depart="30001" from="136014464#0" to="-451728952#4" type="passenger"/>
  <trip id="veh001_312" depart="28882" from="-1068139751" to="1235145933" type="passenger"/>
  <trip id="veh001_313" depart="32186" from="71293415#1" to="958852841" type="passenger"/>
  <trip id="veh001_314" depart="26484" from="958852841" to="457547879#4" type="passenger"/>
  <trip id="veh001_315" depart="30565" from="232359137" to="1235145933" type="passenger"/>
  <trip id="veh001_316" depart="27879" from="-176637359#2" to="446640439" type="passenger"/>
  <trip id="veh001_317" depart="29978" from="958852841" to="85796876#1" type="passenger"/>
  <trip id="veh001_318" depart="26263" from="-39658122#4" to="-15676150#0" type="passenger"/>
  <trip id="veh001_319" depart="28701" from="50843248" to="238492234#0" type="passenger"/>
  <trip id="veh001_320" depart="25325" from="958852841" to="143996571#1" type="passenger"/>
  <trip id="veh001_321" depart="25217" from="-141172463#0" to="49219226" type="passenger"/>
  <trip id="veh001_322" depart="25702" from="-1068139751" to="-50323232#2" type="passenger"/>
  <trip id="veh001_323" depart="26542" from="1262057043#2" to="1235145933" type="passenger"/>
  <trip id="veh001_324" depart="26771" from="1005394020#2" to="1118804256#1" type="passenger"/>