<additional>
  <!-- 一般乘用车参数，可按需调整 -->
  <vType id="passenger"
         accel="2.6" decel="4.5" sigma="0.5"
         length="5.0" minGap="2.5" maxSpeed="70"
         guiShape="passenger"/>
</additional>
